b2a3m
     RDKit          2D

 33 37  0  0  0  0  0  0  0  0999 V2000
    3.9475   -3.1538    0.0000 C   0  0  0  0  0  0  0  0  0  0  0  0
    3.5254   -4.5932    0.0000 C   0  0  0  0  0  0  0  0  0  0  0  0
    2.0678   -4.9473    0.0000 N   0  0  0  0  0  0  0  0  0  0  0  0
    1.0323   -3.8620    0.0000 C   0  0  0  0  0  0  0  0  0  0  0  0
    1.4544   -2.4226    0.0000 C   0  0  0  0  0  0  0  0  0  0  0  0
    2.9120   -2.0685    0.0000 N   0  0  0  0  0  0  0  0  0  0  0  0
    3.3342   -0.6292    0.0000 C   0  0  0  0  0  0  0  0  0  0  0  0
    4.7918   -0.2751    0.0000 O   0  0  0  0  0  0  0  0  0  0  0  0
    2.2987    0.4561    0.0000 C   0  0  0  0  0  0  0  0  0  0  0  0
    2.5681    1.9317    0.0000 C   0  0  0  0  0  0  0  0  0  0  0  0
    3.8449    2.7189    0.0000 N   0  0  0  0  0  0  0  0  0  0  0  0
    3.8016    4.2183    0.0000 C   0  0  0  0  0  0  0  0  0  0  0  0
    2.4815    4.9305    0.0000 C   0  0  0  0  0  0  0  0  0  0  0  0
    1.2046    4.1433    0.0000 C   0  0  0  0  0  0  0  0  0  0  0  0
    1.2479    2.6439    0.0000 C   0  0  0  0  0  0  0  0  0  0  0  0
    0.1627    1.6084    0.0000 N   0  0  0  0  0  0  0  0  0  0  0  0
   -1.3130    1.8778    0.0000 C   0  0  0  0  0  0  0  0  0  0  0  0
   -2.2840    0.7346    0.0000 C   0  0  0  0  0  0  0  0  0  0  0  0
   -3.7597    1.0039    0.0000 C   0  0  0  0  0  0  0  0  0  0  0  0
   -4.2642    2.4165    0.0000 C   0  0  0  0  0  0  0  0  0  0  0  0
   -3.2931    3.5598    0.0000 C   0  0  0  0  0  0  0  0  0  0  0  0
   -1.8175    3.2904    0.0000 C   0  0  0  0  0  0  0  0  0  0  0  0
    0.8121    0.2563    0.0000 C   0  0  0  0  0  0  0  0  0  0  0  0
    0.0999   -1.0639    0.0000 O   0  0  0  0  0  0  0  0  0  0  0  0
   -1.3995   -1.1072    0.0000 C   0  0  0  0  0  0  0  0  0  0  0  0
   -2.1867    0.1697    0.0000 C   0  0  0  0  0  0  0  0  0  0  0  0
   -3.6860    0.1264    0.0000 C   0  0  0  0  0  0  0  0  0  0  0  0
   -4.3982   -1.1938    0.0000 C   0  0  0  0  0  0  0  0  0  0  0  0
   -3.6110   -2.4706    0.0000 C   0  0  0  0  0  0  0  0  0  0  0  0
   -2.1117   -2.4273    0.0000 C   0  0  0  0  0  0  0  0  0  0  0  0
   -1.3245   -3.7042    0.0000 C   0  0  0  0  0  0  0  0  0  0  0  0
   -4.3232   -3.7908    0.0000 F   0  0  0  0  0  0  0  0  0  0  0  0
   -1.8151    1.6229    0.0000 C   0  0  0  0  0  0  0  0  0  0  0  0
  1  2  1  0
  1  6  1  0
  2  3  1  0
  3  4  1  0
  4  5  1  0
  5  6  1  0
  6  7  1  0
  7  8  2  0
  7  9  1  0
  9 10  1  0
  9 23  2  0
 10 11  2  0
 10 15  1  0
 11 12  1  0
 12 13  2  0
 13 14  1  0
 14 15  2  0
 15 16  1  0
 16 17  1  0
 16 23  1  0
 17 18  2  0
 17 22  1  0
 18 19  1  0
 19 20  2  0
 20 21  1  0
 21 22  2  0
 23 24  1  0
 24 25  1  0
 25 26  2  0
 25 30  1  0
 26 27  1  0
 26 33  1  0
 27 28  2  0
 28 29  1  0
 29 30  2  0
 29 32  1  0
 30 31  1  0
M  END
>  <EXTREG>  (1) 
b2a3m

>  <ID>  (1) 
b2a3m

>  <RENIN_IC50>  (1) 
0.0013

>  <ORIGIN>  (1) 
BMCL2011A

>  <RENIN_PIC50>  (1) 
8.8861

>  <TRAIN>  (1) 
test

>  <TRAIN_CLASS>  (1) 
1

$$$$
b1i5c
     RDKit          2D

 33 37  0  0  0  0  0  0  0  0999 V2000
    3.3503   -3.8001    0.0000 C   0  0  0  0  0  0  0  0  0  0  0  0
    2.7743   -5.1851    0.0000 C   0  0  0  0  0  0  0  0  0  0  0  0
    1.2868   -5.3788    0.0000 N   0  0  0  0  0  0  0  0  0  0  0  0
    0.3754   -4.1875    0.0000 C   0  0  0  0  0  0  0  0  0  0  0  0
    0.9513   -2.8024    0.0000 C   0  0  0  0  0  0  0  0  0  0  0  0
    2.4388   -2.6087    0.0000 N   0  0  0  0  0  0  0  0  0  0  0  0
    3.0148   -1.2237    0.0000 C   0  0  0  0  0  0  0  0  0  0  0  0
    4.5022   -1.0300    0.0000 O   0  0  0  0  0  0  0  0  0  0  0  0
    2.1033   -0.0324    0.0000 C   0  0  0  0  0  0  0  0  0  0  0  0
    2.5313    1.4052    0.0000 C   0  0  0  0  0  0  0  0  0  0  0  0
    3.8861    2.0491    0.0000 C   0  0  0  0  0  0  0  0  0  0  0  0
    4.0059    3.5443    0.0000 C   0  0  0  0  0  0  0  0  0  0  0  0
    2.7709    4.3956    0.0000 C   0  0  0  0  0  0  0  0  0  0  0  0
    1.4161    3.7518    0.0000 C   0  0  0  0  0  0  0  0  0  0  0  0
    1.2963    2.2566    0.0000 C   0  0  0  0  0  0  0  0  0  0  0  0
    0.1050    1.3451    0.0000 N   0  0  0  0  0  0  0  0  0  0  0  0
   -1.3326    1.7731    0.0000 C   0  0  0  0  0  0  0  0  0  0  0  0
   -1.6807    3.2322    0.0000 C   0  0  0  0  0  0  0  0  0  0  0  0
   -3.1184    3.6602    0.0000 C   0  0  0  0  0  0  0  0  0  0  0  0
   -4.2079    2.6292    0.0000 C   0  0  0  0  0  0  0  0  0  0  0  0
   -3.8598    1.1702    0.0000 C   0  0  0  0  0  0  0  0  0  0  0  0
   -2.4221    0.7421    0.0000 C   0  0  0  0  0  0  0  0  0  0  0  0
    0.6037   -0.0696    0.0000 C   0  0  0  0  0  0  0  0  0  0  0  0
   -0.2476   -1.3046    0.0000 O   0  0  0  0  0  0  0  0  0  0  0  0
   -1.7428   -1.1848    0.0000 C   0  0  0  0  0  0  0  0  0  0  0  0
   -2.3867    0.1700    0.0000 C   0  0  0  0  0  0  0  0  0  0  0  0
   -3.8819    0.2898    0.0000 C   0  0  0  0  0  0  0  0  0  0  0  0
   -4.7332   -0.9452    0.0000 C   0  0  0  0  0  0  0  0  0  0  0  0
   -4.0894   -2.3000    0.0000 C   0  0  0  0  0  0  0  0  0  0  0  0
   -2.5942   -2.4198    0.0000 C   0  0  0  0  0  0  0  0  0  0  0  0
   -1.9503   -3.7746    0.0000 C   0  0  0  0  0  0  0  0  0  0  0  0
   -4.5257    1.6446    0.0000 F   0  0  0  0  0  0  0  0  0  0  0  0
    5.3607    4.1881    0.0000 O   0  0  0  0  0  0  0  0  0  0  0  0
  1  2  1  0
  1  6  1  0
  2  3  1  0
  3  4  1  0
  4  5  1  0
  5  6  1  0
  6  7  1  0
  7  8  2  0
  7  9  1  0
  9 10  1  0
  9 23  2  0
 10 11  2  0
 10 15  1  0
 11 12  1  0
 12 13  2  0
 12 33  1  0
 13 14  1  0
 14 15  2  0
 15 16  1  0
 16 17  1  0
 16 23  1  0
 17 18  2  0
 17 22  1  0
 18 19  1  0
 19 20  2  0
 20 21  1  0
 21 22  2  0
 23 24  1  0
 24 25  1  0
 25 26  2  0
 25 30  1  0
 26 27  1  0
 27 28  2  0
 27 32  1  0
 28 29  1  0
 29 30  2  0
 30 31  1  0
M  END
>  <EXTREG>  (2) 
b1i5c

>  <ID>  (2) 
b1i5c

>  <RENIN_IC50>  (2) 
0.0020

>  <ORIGIN>  (2) 
BMCL2010

>  <RENIN_PIC50>  (2) 
8.6990

>  <TRAIN>  (2) 
train

>  <TRAIN_CLASS>  (2) 
0

$$$$
b1i5k
     RDKit          2D

 34 38  0  0  0  0  0  0  0  0999 V2000
    1.4034   -4.6808    0.0000 C   0  0  0  0  0  0  0  0  0  0  0  0
    0.3067   -5.7042    0.0000 C   0  0  0  0  0  0  0  0  0  0  0  0
   -1.1279   -5.2661    0.0000 N   0  0  0  0  0  0  0  0  0  0  0  0
   -1.4658   -3.8046    0.0000 C   0  0  0  0  0  0  0  0  0  0  0  0
   -0.3691   -2.7813    0.0000 C   0  0  0  0  0  0  0  0  0  0  0  0
    1.0655   -3.2194    0.0000 N   0  0  0  0  0  0  0  0  0  0  0  0
    2.1622   -2.1961    0.0000 C   0  0  0  0  0  0  0  0  0  0  0  0
    3.5968   -2.6342    0.0000 O   0  0  0  0  0  0  0  0  0  0  0  0
    1.8243   -0.7346    0.0000 C   0  0  0  0  0  0  0  0  0  0  0  0
    2.8081    0.3978    0.0000 C   0  0  0  0  0  0  0  0  0  0  0  0
    4.3078    0.4244    0.0000 C   0  0  0  0  0  0  0  0  0  0  0  0
    5.0346    1.7366    0.0000 C   0  0  0  0  0  0  0  0  0  0  0  0
    4.2617    3.0221    0.0000 C   0  0  0  0  0  0  0  0  0  0  0  0
    2.7619    2.9954    0.0000 C   0  0  0  0  0  0  0  0  0  0  0  0
    2.0351    1.6833    0.0000 C   0  0  0  0  0  0  0  0  0  0  0  0
    0.5737    1.3454    0.0000 N   0  0  0  0  0  0  0  0  0  0  0  0
   -0.5587    2.3291    0.0000 C   0  0  0  0  0  0  0  0  0  0  0  0
   -1.9768    1.8403    0.0000 C   0  0  0  0  0  0  0  0  0  0  0  0
   -3.1092    2.8240    0.0000 C   0  0  0  0  0  0  0  0  0  0  0  0
   -2.8235    4.2966    0.0000 C   0  0  0  0  0  0  0  0  0  0  0  0
   -1.4054    4.7854    0.0000 C   0  0  0  0  0  0  0  0  0  0  0  0
   -0.2730    3.8016    0.0000 C   0  0  0  0  0  0  0  0  0  0  0  0
    0.4434   -0.1489    0.0000 C   0  0  0  0  0  0  0  0  0  0  0  0
   -0.8421   -0.9219    0.0000 C   0  0  0  0  0  0  0  0  0  0  0  0
   -2.1543   -0.1951    0.0000 C   0  0  0  0  0  0  0  0  0  0  0  0
   -3.4398   -0.9681    0.0000 C   0  0  0  0  0  0  0  0  0  0  0  0
   -4.7519   -0.2413    0.0000 C   0  0  0  0  0  0  0  0  0  0  0  0
   -4.7786    1.2585    0.0000 C   0  0  0  0  0  0  0  0  0  0  0  0
   -3.4931    2.0314    0.0000 C   0  0  0  0  0  0  0  0  0  0  0  0
   -2.1809    1.3046    0.0000 C   0  0  0  0  0  0  0  0  0  0  0  0
   -6.0374   -1.0143    0.0000 F   0  0  0  0  0  0  0  0  0  0  0  0
   -3.4131   -2.4678    0.0000 C   0  0  0  0  0  0  0  0  0  0  0  0
    6.5344    1.7632    0.0000 O   0  0  0  0  0  0  0  0  0  0  0  0
    5.0808   -0.8611    0.0000 C   0  0  0  0  0  0  0  0  0  0  0  0
  1  2  1  0
  1  6  1  0
  2  3  1  0
  3  4  1  0
  4  5  1  0
  5  6  1  0
  6  7  1  0
  7  8  2  0
  7  9  1  0
  9 10  1  0
  9 23  2  0
 10 11  2  0
 10 15  1  0
 11 12  1  0
 11 34  1  0
 12 13  2  0
 12 33  1  0
 13 14  1  0
 14 15  2  0
 15 16  1  0
 16 17  1  0
 16 23  1  0
 17 18  2  0
 17 22  1  0
 18 19  1  0
 19 20  2  0
 20 21  1  0
 21 22  2  0
 23 24  1  0
 24 25  1  0
 25 26  2  0
 25 30  1  0
 26 27  1  0
 26 32  1  0
 27 28  2  0
 27 31  1  0
 28 29  1  0
 29 30  2  0
M  END
>  <EXTREG>  (3) 
b1i5k

>  <ID>  (3) 
b1i5k

>  <RENIN_IC50>  (3) 
0.0020

>  <COMMENT>  (3) 
XRAY 3oot, 2.55A

>  <ORIGIN>  (3) 
BMCL2010

>  <RENIN_PIC50>  (3) 
8.6990

>  <TRAIN>  (3) 
train

>  <TRAIN_CLASS>  (3) 
0

$$$$
b2a6d
     RDKit          2D

 33 37  0  0  0  0  0  0  0  0999 V2000
    3.9475   -3.1538    0.0000 C   0  0  0  0  0  0  0  0  0  0  0  0
    3.5254   -4.5932    0.0000 C   0  0  0  0  0  0  0  0  0  0  0  0
    2.0678   -4.9473    0.0000 N   0  0  0  0  0  0  0  0  0  0  0  0
    1.0323   -3.8620    0.0000 C   0  0  0  0  0  0  0  0  0  0  0  0
    1.4544   -2.4226    0.0000 C   0  0  0  0  0  0  0  0  0  0  0  0
    2.9120   -2.0685    0.0000 N   0  0  0  0  0  0  0  0  0  0  0  0
    3.3342   -0.6292    0.0000 C   0  0  0  0  0  0  0  0  0  0  0  0
    4.7918   -0.2751    0.0000 O   0  0  0  0  0  0  0  0  0  0  0  0
    2.2987    0.4561    0.0000 C   0  0  0  0  0  0  0  0  0  0  0  0
    2.5681    1.9317    0.0000 C   0  0  0  0  0  0  0  0  0  0  0  0
    3.8449    2.7189    0.0000 C   0  0  0  0  0  0  0  0  0  0  0  0
    3.8016    4.2183    0.0000 C   0  0  0  0  0  0  0  0  0  0  0  0
    2.4815    4.9305    0.0000 N   0  0  0  0  0  0  0  0  0  0  0  0
    1.2046    4.1433    0.0000 C   0  0  0  0  0  0  0  0  0  0  0  0
    1.2479    2.6439    0.0000 C   0  0  0  0  0  0  0  0  0  0  0  0
    0.1627    1.6084    0.0000 N   0  0  0  0  0  0  0  0  0  0  0  0
   -1.3130    1.8778    0.0000 C   0  0  0  0  0  0  0  0  0  0  0  0
   -2.2840    0.7346    0.0000 C   0  0  0  0  0  0  0  0  0  0  0  0
   -3.7597    1.0039    0.0000 C   0  0  0  0  0  0  0  0  0  0  0  0
   -4.2642    2.4165    0.0000 C   0  0  0  0  0  0  0  0  0  0  0  0
   -3.2931    3.5598    0.0000 C   0  0  0  0  0  0  0  0  0  0  0  0
   -1.8175    3.2904    0.0000 C   0  0  0  0  0  0  0  0  0  0  0  0
    0.8121    0.2563    0.0000 C   0  0  0  0  0  0  0  0  0  0  0  0
    0.0999   -1.0639    0.0000 O   0  0  0  0  0  0  0  0  0  0  0  0
   -1.3995   -1.1072    0.0000 C   0  0  0  0  0  0  0  0  0  0  0  0
   -2.1867    0.1697    0.0000 C   0  0  0  0  0  0  0  0  0  0  0  0
   -3.6860    0.1264    0.0000 C   0  0  0  0  0  0  0  0  0  0  0  0
   -4.3982   -1.1938    0.0000 C   0  0  0  0  0  0  0  0  0  0  0  0
   -3.6110   -2.4706    0.0000 C   0  0  0  0  0  0  0  0  0  0  0  0
   -2.1117   -2.4273    0.0000 C   0  0  0  0  0  0  0  0  0  0  0  0
   -1.3245   -3.7042    0.0000 C   0  0  0  0  0  0  0  0  0  0  0  0
   -4.3232   -3.7908    0.0000 F   0  0  0  0  0  0  0  0  0  0  0  0
   -1.8151    1.6229    0.0000 C   0  0  0  0  0  0  0  0  0  0  0  0
  1  2  1  0
  1  6  1  0
  2  3  1  0
  3  4  1  0
  4  5  1  0
  5  6  1  0
  6  7  1  0
  7  8  2  0
  7  9  1  0
  9 10  1  0
  9 23  2  0
 10 11  2  0
 10 15  1  0
 11 12  1  0
 12 13  2  0
 13 14  1  0
 14 15  2  0
 15 16  1  0
 16 17  1  0
 16 23  1  0
 17 18  2  0
 17 22  1  0
 18 19  1  0
 19 20  2  0
 20 21  1  0
 21 22  2  0
 23 24  1  0
 24 25  1  0
 25 26  2  0
 25 30  1  0
 26 27  1  0
 26 33  1  0
 27 28  2  0
 28 29  1  0
 29 30  2  0
 29 32  1  0
 30 31  1  0
M  END
>  <EXTREG>  (4) 
b2a6d

>  <ID>  (4) 
b2a6d

>  <RENIN_IC50>  (4) 
0.0020

>  <ORIGIN>  (4) 
BMCL2011A

>  <RENIN_PIC50>  (4) 
8.6990

>  <TRAIN>  (4) 
test

>  <TRAIN_CLASS>  (4) 
1

$$$$
b2a7d
     RDKit          2D

 39 44  0  0  0  0  0  0  0  0999 V2000
   -4.9708   -3.4301    0.0000 C   0  0  0  0  0  0  0  0  0  0  0  0
   -6.3572   -2.8575    0.0000 C   0  0  0  0  0  0  0  0  0  0  0  0
   -6.5544   -1.3705    0.0000 N   0  0  0  0  0  0  0  0  0  0  0  0
   -5.3653   -0.4562    0.0000 C   0  0  0  0  0  0  0  0  0  0  0  0
   -3.9789   -1.0289    0.0000 C   0  0  0  0  0  0  0  0  0  0  0  0
   -3.7817   -2.5158    0.0000 N   0  0  0  0  0  0  0  0  0  0  0  0
   -2.3953   -3.0885    0.0000 C   0  0  0  0  0  0  0  0  0  0  0  0
   -2.1981   -4.5755    0.0000 O   0  0  0  0  0  0  0  0  0  0  0  0
   -1.2061   -2.1742    0.0000 C   0  0  0  0  0  0  0  0  0  0  0  0
    0.2325   -2.5989    0.0000 C   0  0  0  0  0  0  0  0  0  0  0  0
    0.8796   -3.9521    0.0000 C   0  0  0  0  0  0  0  0  0  0  0  0
    2.3751   -4.0684    0.0000 C   0  0  0  0  0  0  0  0  0  0  0  0
    3.2235   -2.8313    0.0000 N   0  0  0  0  0  0  0  0  0  0  0  0
    2.5764   -1.4781    0.0000 C   0  0  0  0  0  0  0  0  0  0  0  0
    1.0809   -1.3619    0.0000 C   0  0  0  0  0  0  0  0  0  0  0  0
    0.1666   -0.1727    0.0000 N   0  0  0  0  0  0  0  0  0  0  0  0
    0.5913    1.2659    0.0000 C   0  0  0  0  0  0  0  0  0  0  0  0
   -0.4423    2.3530    0.0000 C   0  0  0  0  0  0  0  0  0  0  0  0
   -0.0177    3.7916    0.0000 C   0  0  0  0  0  0  0  0  0  0  0  0
    1.4405    4.1432    0.0000 C   0  0  0  0  0  0  0  0  0  0  0  0
    2.4741    3.0562    0.0000 C   0  0  0  0  0  0  0  0  0  0  0  0
    2.0495    1.6175    0.0000 C   0  0  0  0  0  0  0  0  0  0  0  0
   -1.2469   -0.6748    0.0000 C   0  0  0  0  0  0  0  0  0  0  0  0
   -2.4839    0.1736    0.0000 O   0  0  0  0  0  0  0  0  0  0  0  0
   -2.3676    1.6691    0.0000 C   0  0  0  0  0  0  0  0  0  0  0  0
   -1.0144    2.3162    0.0000 C   0  0  0  0  0  0  0  0  0  0  0  0
   -0.8981    3.8117    0.0000 C   0  0  0  0  0  0  0  0  0  0  0  0
   -2.1351    4.6601    0.0000 C   0  0  0  0  0  0  0  0  0  0  0  0
   -3.4884    4.0130    0.0000 C   0  0  0  0  0  0  0  0  0  0  0  0
   -3.6046    2.5175    0.0000 C   0  0  0  0  0  0  0  0  0  0  0  0
   -4.9579    1.8704    0.0000 C   0  0  0  0  0  0  0  0  0  0  0  0
    0.4551    4.4588    0.0000 F   0  0  0  0  0  0  0  0  0  0  0  0
    3.4248   -0.2411    0.0000 C   0  0  0  0  0  0  0  0  0  0  0  0
    4.9203   -0.3573    0.0000 C   0  0  0  0  0  0  0  0  0  0  0  0
    5.5674   -1.7106    0.0000 C   0  0  0  0  0  0  0  0  0  0  0  0
    7.0629   -1.8268    0.0000 C   0  0  0  0  0  0  0  0  0  0  0  0
    7.9113   -0.5898    0.0000 C   0  0  0  0  0  0  0  0  0  0  0  0
    7.2642    0.7635    0.0000 C   0  0  0  0  0  0  0  0  0  0  0  0
    5.7687    0.8797    0.0000 C   0  0  0  0  0  0  0  0  0  0  0  0
  1  2  1  0
  1  6  1  0
  2  3  1  0
  3  4  1  0
  4  5  1  0
  5  6  1  0
  6  7  1  0
  7  8  2  0
  7  9  1  0
  9 10  1  0
  9 23  2  0
 10 11  2  0
 10 15  1  0
 11 12  1  0
 12 13  2  0
 13 14  1  0
 14 15  2  0
 14 33  1  0
 15 16  1  0
 16 17  1  0
 16 23  1  0
 17 18  2  0
 17 22  1  0
 18 19  1  0
 19 20  2  0
 20 21  1  0
 21 22  2  0
 23 24  1  0
 24 25  1  0
 25 26  2  0
 25 30  1  0
 26 27  1  0
 27 28  2  0
 27 32  1  0
 28 29  1  0
 29 30  2  0
 30 31  1  0
 33 34  1  0
 34 35  2  0
 34 39  1  0
 35 36  1  0
 36 37  2  0
 37 38  1  0
 38 39  2  0
M  END
>  <EXTREG>  (5) 
b2a7d

>  <ID>  (5) 
b2a7d

>  <RENIN_IC50>  (5) 
0.0030

>  <COMMENT>  (5) 
XRAY 3sfc 2.1 A

>  <ORIGIN>  (5) 
BMCL2011A

>  <RENIN_PIC50>  (5) 
8.5229

>  <TRAIN>  (5) 
train

>  <TRAIN_CLASS>  (5) 
0

$$$$
b2a5d
     RDKit          2D

 33 37  0  0  0  0  0  0  0  0999 V2000
   -4.0170   -3.1412    0.0000 C   0  0  0  0  0  0  0  0  0  0  0  0
   -5.3704   -2.4945    0.0000 C   0  0  0  0  0  0  0  0  0  0  0  0
   -5.4871   -0.9990    0.0000 N   0  0  0  0  0  0  0  0  0  0  0  0
   -4.2503   -0.1503    0.0000 C   0  0  0  0  0  0  0  0  0  0  0  0
   -2.8969   -0.7969    0.0000 C   0  0  0  0  0  0  0  0  0  0  0  0
   -2.7802   -2.2924    0.0000 N   0  0  0  0  0  0  0  0  0  0  0  0
   -1.4268   -2.9391    0.0000 C   0  0  0  0  0  0  0  0  0  0  0  0
   -1.3101   -4.4345    0.0000 O   0  0  0  0  0  0  0  0  0  0  0  0
   -0.1900   -2.0903    0.0000 C   0  0  0  0  0  0  0  0  0  0  0  0
    1.2236   -2.5920    0.0000 C   0  0  0  0  0  0  0  0  0  0  0  0
    1.7967   -3.9782    0.0000 N   0  0  0  0  0  0  0  0  0  0  0  0
    3.2837   -4.1750    0.0000 C   0  0  0  0  0  0  0  0  0  0  0  0
    4.1977   -2.9856    0.0000 C   0  0  0  0  0  0  0  0  0  0  0  0
    3.6246   -1.5994    0.0000 C   0  0  0  0  0  0  0  0  0  0  0  0
    2.1375   -1.4026    0.0000 C   0  0  0  0  0  0  0  0  0  0  0  0
    1.2888   -0.1658    0.0000 N   0  0  0  0  0  0  0  0  0  0  0  0
    1.7905    1.2478    0.0000 C   0  0  0  0  0  0  0  0  0  0  0  0
    0.8171    2.3891    0.0000 C   0  0  0  0  0  0  0  0  0  0  0  0
    1.3187    3.8027    0.0000 C   0  0  0  0  0  0  0  0  0  0  0  0
    2.7938    4.0751    0.0000 C   0  0  0  0  0  0  0  0  0  0  0  0
    3.7672    2.9338    0.0000 C   0  0  0  0  0  0  0  0  0  0  0  0
    3.2655    1.5202    0.0000 C   0  0  0  0  0  0  0  0  0  0  0  0
   -0.1497   -0.5909    0.0000 C   0  0  0  0  0  0  0  0  0  0  0  0
   -1.3391    0.3231    0.0000 O   0  0  0  0  0  0  0  0  0  0  0  0
   -1.1423    1.8101    0.0000 C   0  0  0  0  0  0  0  0  0  0  0  0
   -2.3318    2.7241    0.0000 C   0  0  0  0  0  0  0  0  0  0  0  0
   -2.1350    4.2111    0.0000 C   0  0  0  0  0  0  0  0  0  0  0  0
   -0.7487    4.7842    0.0000 C   0  0  0  0  0  0  0  0  0  0  0  0
    0.4407    3.8702    0.0000 C   0  0  0  0  0  0  0  0  0  0  0  0
    0.2439    2.3832    0.0000 C   0  0  0  0  0  0  0  0  0  0  0  0
    1.6191    1.7842    0.0000 C   0  0  0  0  0  0  0  0  0  0  0  0
   -3.7180    2.1510    0.0000 C   0  0  0  0  0  0  0  0  0  0  0  0
    5.6847   -3.1824    0.0000 O   0  0  0  0  0  0  0  0  0  0  0  0
  1  2  1  0
  1  6  1  0
  2  3  1  0
  3  4  1  0
  4  5  1  0
  5  6  1  0
  6  7  1  0
  7  8  2  0
  7  9  1  0
  9 10  1  0
  9 23  2  0
 10 11  2  0
 10 15  1  0
 11 12  1  0
 12 13  2  0
 13 14  1  0
 13 33  1  0
 14 15  2  0
 15 16  1  0
 16 17  1  0
 16 23  1  0
 17 18  2  0
 17 22  1  0
 18 19  1  0
 19 20  2  0
 20 21  1  0
 21 22  2  0
 23 24  1  0
 24 25  1  0
 25 26  2  0
 25 30  1  0
 26 27  1  0
 26 32  1  0
 27 28  2  0
 28 29  1  0
 29 30  2  0
 30 31  1  0
M  END
>  <EXTREG>  (6) 
b2a5d

>  <ID>  (6) 
b2a5d

>  <RENIN_IC50>  (6) 
0.0030

>  <ORIGIN>  (6) 
BMCL2011A

>  <RENIN_PIC50>  (6) 
8.5229

>  <TRAIN>  (6) 
train

>  <TRAIN_CLASS>  (6) 
0

$$$$
b3a4e
     RDKit          2D

 34 38  0  0  0  0  0  0  0  0999 V2000
   -2.2424   -4.6542    0.0000 C   0  0  0  0  0  0  0  0  0  0  0  0
   -3.7401   -4.7364    0.0000 C   0  0  0  0  0  0  0  0  0  0  0  0
   -4.5602   -3.4805    0.0000 N   0  0  0  0  0  0  0  0  0  0  0  0
   -3.8826   -2.1423    0.0000 C   0  0  0  0  0  0  0  0  0  0  0  0
   -2.3849   -2.0600    0.0000 C   0  0  0  0  0  0  0  0  0  0  0  0
   -1.5648   -3.3160    0.0000 N   0  0  0  0  0  0  0  0  0  0  0  0
   -0.0670   -3.2337    0.0000 C   0  0  0  0  0  0  0  0  0  0  0  0
    0.7531   -4.4896    0.0000 O   0  0  0  0  0  0  0  0  0  0  0  0
    0.6106   -1.8955    0.0000 C   0  0  0  0  0  0  0  0  0  0  0  0
    2.0915   -1.6571    0.0000 C   0  0  0  0  0  0  0  0  0  0  0  0
    3.2596   -2.5981    0.0000 C   0  0  0  0  0  0  0  0  0  0  0  0
    4.6586   -2.0571    0.0000 C   0  0  0  0  0  0  0  0  0  0  0  0
    4.8896   -0.5750    0.0000 C   0  0  0  0  0  0  0  0  0  0  0  0
    3.7215    0.3661    0.0000 N   0  0  0  0  0  0  0  0  0  0  0  0
    2.3225   -0.1750    0.0000 C   0  0  0  0  0  0  0  0  0  0  0  0
    0.9843    0.5026    0.0000 N   0  0  0  0  0  0  0  0  0  0  0  0
    0.7459    1.9836    0.0000 C   0  0  0  0  0  0  0  0  0  0  0  0
   -0.6558    2.5176    0.0000 C   0  0  0  0  0  0  0  0  0  0  0  0
   -0.8942    3.9986    0.0000 C   0  0  0  0  0  0  0  0  0  0  0  0
    0.2691    4.9455    0.0000 C   0  0  0  0  0  0  0  0  0  0  0  0
    1.6708    4.4114    0.0000 C   0  0  0  0  0  0  0  0  0  0  0  0
    1.9092    2.9305    0.0000 C   0  0  0  0  0  0  0  0  0  0  0  0
   -0.0737   -0.5607    0.0000 C   0  0  0  0  0  0  0  0  0  0  0  0
   -1.5559   -0.3297    0.0000 O   0  0  0  0  0  0  0  0  0  0  0  0
   -2.0969    1.0693    0.0000 C   0  0  0  0  0  0  0  0  0  0  0  0
   -3.5790    1.3002    0.0000 C   0  0  0  0  0  0  0  0  0  0  0  0
   -4.1201    2.6992    0.0000 C   0  0  0  0  0  0  0  0  0  0  0  0
   -3.1791    3.8673    0.0000 C   0  0  0  0  0  0  0  0  0  0  0  0
   -1.6969    3.6364    0.0000 C   0  0  0  0  0  0  0  0  0  0  0  0
   -1.1559    2.2374    0.0000 C   0  0  0  0  0  0  0  0  0  0  0  0
    0.3381    2.3719    0.0000 C   0  0  0  0  0  0  0  0  0  0  0  0
   -4.5201    0.1321    0.0000 C   0  0  0  0  0  0  0  0  0  0  0  0
    6.2886   -0.0339    0.0000 O   0  0  0  0  0  0  0  0  0  0  0  0
    7.4567   -0.9749    0.0000 C   0  0  0  0  0  0  0  0  0  0  0  0
  1  2  1  0
  1  6  1  0
  2  3  1  0
  3  4  1  0
  4  5  1  0
  5  6  1  0
  6  7  1  0
  7  8  2  0
  7  9  1  0
  9 10  1  0
  9 23  2  0
 10 11  2  0
 10 15  1  0
 11 12  1  0
 12 13  2  0
 13 14  1  0
 13 33  1  0
 14 15  2  0
 15 16  1  0
 16 17  1  0
 16 23  1  0
 17 18  2  0
 17 22  1  0
 18 19  1  0
 19 20  2  0
 20 21  1  0
 21 22  2  0
 23 24  1  0
 24 25  1  0
 25 26  2  0
 25 30  1  0
 26 27  1  0
 26 32  1  0
 27 28  2  0
 28 29  1  0
 29 30  2  0
 30 31  1  0
 33 34  1  0
M  END
>  <EXTREG>  (7) 
b3a4e

>  <ID>  (7) 
b3a4e

>  <RENIN_IC50>  (7) 
0.0030

>  <ORIGIN>  (7) 
BMCL2011B

>  <RENIN_PIC50>  (7) 
8.5229

>  <TRAIN>  (7) 
train

>  <TRAIN_CLASS>  (7) 
0

$$$$
b1i5j
     RDKit          2D

 33 37  0  0  0  0  0  0  0  0999 V2000
    1.1911   -4.8127    0.0000 C   0  0  0  0  0  0  0  0  0  0  0  0
    0.0190   -5.7487    0.0000 C   0  0  0  0  0  0  0  0  0  0  0  0
   -1.3777   -5.2017    0.0000 N   0  0  0  0  0  0  0  0  0  0  0  0
   -1.6023   -3.7186    0.0000 C   0  0  0  0  0  0  0  0  0  0  0  0
   -0.4302   -2.7826    0.0000 C   0  0  0  0  0  0  0  0  0  0  0  0
    0.9665   -3.3296    0.0000 N   0  0  0  0  0  0  0  0  0  0  0  0
    2.1386   -2.3935    0.0000 C   0  0  0  0  0  0  0  0  0  0  0  0
    3.5353   -2.9406    0.0000 O   0  0  0  0  0  0  0  0  0  0  0  0
    1.9140   -0.9105    0.0000 C   0  0  0  0  0  0  0  0  0  0  0  0
    2.9818    0.1430    0.0000 C   0  0  0  0  0  0  0  0  0  0  0  0
    4.4792    0.0543    0.0000 C   0  0  0  0  0  0  0  0  0  0  0  0
    5.3047    1.3068    0.0000 C   0  0  0  0  0  0  0  0  0  0  0  0
    4.6328    2.6479    0.0000 C   0  0  0  0  0  0  0  0  0  0  0  0
    3.1354    2.7365    0.0000 C   0  0  0  0  0  0  0  0  0  0  0  0
    2.3099    1.4841    0.0000 C   0  0  0  0  0  0  0  0  0  0  0  0
    0.8268    1.2595    0.0000 N   0  0  0  0  0  0  0  0  0  0  0  0
   -0.2266    2.3273    0.0000 C   0  0  0  0  0  0  0  0  0  0  0  0
   -1.6781    1.9489    0.0000 C   0  0  0  0  0  0  0  0  0  0  0  0
   -2.7315    3.0167    0.0000 C   0  0  0  0  0  0  0  0  0  0  0  0
   -2.3335    4.4630    0.0000 C   0  0  0  0  0  0  0  0  0  0  0  0
   -0.8820    4.8414    0.0000 C   0  0  0  0  0  0  0  0  0  0  0  0
    0.1714    3.7735    0.0000 C   0  0  0  0  0  0  0  0  0  0  0  0
    0.5821   -0.2204    0.0000 C   0  0  0  0  0  0  0  0  0  0  0  0
   -0.7590   -0.8923    0.0000 C   0  0  0  0  0  0  0  0  0  0  0  0
   -2.0114   -0.0669    0.0000 C   0  0  0  0  0  0  0  0  0  0  0  0
   -3.3525   -0.7388    0.0000 C   0  0  0  0  0  0  0  0  0  0  0  0
   -4.6049    0.0867    0.0000 C   0  0  0  0  0  0  0  0  0  0  0  0
   -4.5163    1.5841    0.0000 C   0  0  0  0  0  0  0  0  0  0  0  0
   -3.1752    2.2560    0.0000 C   0  0  0  0  0  0  0  0  0  0  0  0
   -1.9227    1.4305    0.0000 C   0  0  0  0  0  0  0  0  0  0  0  0
   -5.9460   -0.5852    0.0000 F   0  0  0  0  0  0  0  0  0  0  0  0
   -3.4411   -2.2361    0.0000 C   0  0  0  0  0  0  0  0  0  0  0  0
    6.8021    1.2181    0.0000 O   0  0  0  0  0  0  0  0  0  0  0  0
  1  2  1  0
  1  6  1  0
  2  3  1  0
  3  4  1  0
  4  5  1  0
  5  6  1  0
  6  7  1  0
  7  8  2  0
  7  9  1  0
  9 10  1  0
  9 23  2  0
 10 11  2  0
 10 15  1  0
 11 12  1  0
 12 13  2  0
 12 33  1  0
 13 14  1  0
 14 15  2  0
 15 16  1  0
 16 17  1  0
 16 23  1  0
 17 18  2  0
 17 22  1  0
 18 19  1  0
 19 20  2  0
 20 21  1  0
 21 22  2  0
 23 24  1  0
 24 25  1  0
 25 26  2  0
 25 30  1  0
 26 27  1  0
 26 32  1  0
 27 28  2  0
 27 31  1  0
 28 29  1  0
 29 30  2  0
M  END
>  <EXTREG>  (8) 
b1i5j

>  <ID>  (8) 
b1i5j

>  <RENIN_IC50>  (8) 
0.0040

>  <ORIGIN>  (8) 
BMCL2010

>  <RENIN_PIC50>  (8) 
8.3979

>  <TRAIN>  (8) 
test

>  <TRAIN_CLASS>  (8) 
1

$$$$
b1i5i
     RDKit          2D

 33 37  0  0  0  0  0  0  0  0999 V2000
   -0.6180   -5.0086    0.0000 C   0  0  0  0  0  0  0  0  0  0  0  0
   -2.0490   -5.4584    0.0000 C   0  0  0  0  0  0  0  0  0  0  0  0
   -3.1540   -4.4440    0.0000 N   0  0  0  0  0  0  0  0  0  0  0  0
   -2.8281   -2.9799    0.0000 C   0  0  0  0  0  0  0  0  0  0  0  0
   -1.3971   -2.5301    0.0000 C   0  0  0  0  0  0  0  0  0  0  0  0
   -0.2921   -3.5445    0.0000 N   0  0  0  0  0  0  0  0  0  0  0  0
    1.1389   -3.0947    0.0000 C   0  0  0  0  0  0  0  0  0  0  0  0
    2.2439   -4.1091    0.0000 O   0  0  0  0  0  0  0  0  0  0  0  0
    1.4649   -1.6305    0.0000 C   0  0  0  0  0  0  0  0  0  0  0  0
    2.8410   -1.0336    0.0000 C   0  0  0  0  0  0  0  0  0  0  0  0
    4.2054   -1.6569    0.0000 C   0  0  0  0  0  0  0  0  0  0  0  0
    5.4273   -0.7869    0.0000 C   0  0  0  0  0  0  0  0  0  0  0  0
    5.2849    0.7063    0.0000 C   0  0  0  0  0  0  0  0  0  0  0  0
    3.9205    1.3295    0.0000 C   0  0  0  0  0  0  0  0  0  0  0  0
    2.6986    0.4596    0.0000 C   0  0  0  0  0  0  0  0  0  0  0  0
    1.2344    0.7855    0.0000 N   0  0  0  0  0  0  0  0  0  0  0  0
    0.6375    2.1617    0.0000 C   0  0  0  0  0  0  0  0  0  0  0  0
   -0.8527    2.3328    0.0000 C   0  0  0  0  0  0  0  0  0  0  0  0
   -1.4496    3.7089    0.0000 C   0  0  0  0  0  0  0  0  0  0  0  0
   -0.5563    4.9139    0.0000 C   0  0  0  0  0  0  0  0  0  0  0  0
    0.9339    4.7428    0.0000 C   0  0  0  0  0  0  0  0  0  0  0  0
    1.5308    3.3667    0.0000 C   0  0  0  0  0  0  0  0  0  0  0  0
    0.4719   -0.5062    0.0000 C   0  0  0  0  0  0  0  0  0  0  0  0
   -1.0213   -0.6487    0.0000 C   0  0  0  0  0  0  0  0  0  0  0  0
   -1.8912    0.5733    0.0000 C   0  0  0  0  0  0  0  0  0  0  0  0
   -3.3845    0.4308    0.0000 C   0  0  0  0  0  0  0  0  0  0  0  0
   -4.2544    1.6528    0.0000 C   0  0  0  0  0  0  0  0  0  0  0  0
   -3.6312    3.0172    0.0000 C   0  0  0  0  0  0  0  0  0  0  0  0
   -2.1380    3.1596    0.0000 C   0  0  0  0  0  0  0  0  0  0  0  0
   -1.2680    1.9377    0.0000 C   0  0  0  0  0  0  0  0  0  0  0  0
   -5.7477    1.5104    0.0000 F   0  0  0  0  0  0  0  0  0  0  0  0
   -4.0077   -0.9335    0.0000 C   0  0  0  0  0  0  0  0  0  0  0  0
    6.5068    1.5763    0.0000 O   0  0  0  0  0  0  0  0  0  0  0  0
  1  2  1  0
  1  6  1  0
  2  3  1  0
  3  4  1  0
  4  5  1  0
  5  6  1  0
  6  7  1  0
  7  8  2  0
  7  9  1  0
  9 10  1  0
  9 23  2  0
 10 11  2  0
 10 15  1  0
 11 12  1  0
 12 13  2  0
 13 14  1  0
 13 33  1  0
 14 15  2  0
 15 16  1  0
 16 17  1  0
 16 23  1  0
 17 18  2  0
 17 22  1  0
 18 19  1  0
 19 20  2  0
 20 21  1  0
 21 22  2  0
 23 24  1  0
 24 25  1  0
 25 26  2  0
 25 30  1  0
 26 27  1  0
 26 32  1  0
 27 28  2  0
 27 31  1  0
 28 29  1  0
 29 30  2  0
M  END
>  <EXTREG>  (9) 
b1i5i

>  <ID>  (9) 
b1i5i

>  <RENIN_IC50>  (9) 
0.0040

>  <ORIGIN>  (9) 
BMCL2010

>  <RENIN_PIC50>  (9) 
8.3979

>  <TRAIN>  (9) 
train

>  <TRAIN_CLASS>  (9) 
0

$$$$
b2a4a
     RDKit          2D

 32 36  0  0  0  0  0  0  0  0999 V2000
   -4.9661    0.7617    0.0000 C   0  0  0  0  0  0  0  0  0  0  0  0
   -5.3688    2.2066    0.0000 C   0  0  0  0  0  0  0  0  0  0  0  0
   -4.3188    3.2779    0.0000 N   0  0  0  0  0  0  0  0  0  0  0  0
   -2.8661    2.9042    0.0000 C   0  0  0  0  0  0  0  0  0  0  0  0
   -2.4634    1.4593    0.0000 C   0  0  0  0  0  0  0  0  0  0  0  0
   -3.5134    0.3880    0.0000 N   0  0  0  0  0  0  0  0  0  0  0  0
   -3.1106   -1.0569    0.0000 C   0  0  0  0  0  0  0  0  0  0  0  0
   -4.1606   -2.1281    0.0000 O   0  0  0  0  0  0  0  0  0  0  0  0
   -1.6579   -1.4306    0.0000 C   0  0  0  0  0  0  0  0  0  0  0  0
   -1.1064   -2.8255    0.0000 C   0  0  0  0  0  0  0  0  0  0  0  0
   -1.7739   -4.1687    0.0000 N   0  0  0  0  0  0  0  0  0  0  0  0
   -0.9444   -5.4185    0.0000 C   0  0  0  0  0  0  0  0  0  0  0  0
    0.5527   -5.3250    0.0000 C   0  0  0  0  0  0  0  0  0  0  0  0
    1.2203   -3.9817    0.0000 C   0  0  0  0  0  0  0  0  0  0  0  0
    0.3907   -2.7319    0.0000 C   0  0  0  0  0  0  0  0  0  0  0  0
    0.7644   -1.2792    0.0000 N   0  0  0  0  0  0  0  0  0  0  0  0
    2.1593   -0.7277    0.0000 C   0  0  0  0  0  0  0  0  0  0  0  0
    2.3791    0.7561    0.0000 C   0  0  0  0  0  0  0  0  0  0  0  0
    3.7740    1.3077    0.0000 C   0  0  0  0  0  0  0  0  0  0  0  0
    4.9491    0.3755    0.0000 C   0  0  0  0  0  0  0  0  0  0  0  0
    4.7294   -1.1083    0.0000 C   0  0  0  0  0  0  0  0  0  0  0  0
    3.3344   -1.6599    0.0000 C   0  0  0  0  0  0  0  0  0  0  0  0
   -0.5017   -0.4749    0.0000 C   0  0  0  0  0  0  0  0  0  0  0  0
   -0.5953    1.0221    0.0000 O   0  0  0  0  0  0  0  0  0  0  0  0
    0.6545    1.8517    0.0000 C   0  0  0  0  0  0  0  0  0  0  0  0
    0.5610    3.3488    0.0000 C   0  0  0  0  0  0  0  0  0  0  0  0
    1.8107    4.1783    0.0000 C   0  0  0  0  0  0  0  0  0  0  0  0
    3.1540    3.5107    0.0000 C   0  0  0  0  0  0  0  0  0  0  0  0
    3.2475    2.0137    0.0000 C   0  0  0  0  0  0  0  0  0  0  0  0
    1.9978    1.1841    0.0000 C   0  0  0  0  0  0  0  0  0  0  0  0
    2.4508   -0.2458    0.0000 C   0  0  0  0  0  0  0  0  0  0  0  0
   -0.7823    4.0163    0.0000 C   0  0  0  0  0  0  0  0  0  0  0  0
  1  2  1  0
  1  6  1  0
  2  3  1  0
  3  4  1  0
  4  5  1  0
  5  6  1  0
  6  7  1  0
  7  8  2  0
  7  9  1  0
  9 10  1  0
  9 23  2  0
 10 11  2  0
 10 15  1  0
 11 12  1  0
 12 13  2  0
 13 14  1  0
 14 15  2  0
 15 16  1  0
 16 17  1  0
 16 23  1  0
 17 18  1  0
 17 22  1  0
 18 19  1  0
 19 20  1  0
 20 21  1  0
 21 22  1  0
 23 24  1  0
 24 25  1  0
 25 26  2  0
 25 30  1  0
 26 27  1  0
 26 32  1  0
 27 28  2  0
 28 29  1  0
 29 30  2  0
 30 31  1  0
M  END
>  <EXTREG>  (10) 
b2a4a

>  <ID>  (10) 
b2a4a

>  <RENIN_IC50>  (10) 
0.0040

>  <ORIGIN>  (10) 
BMCL2011A

>  <RENIN_PIC50>  (10) 
8.3979

>  <TRAIN>  (10) 
train

>  <TRAIN_CLASS>  (10) 
0

$$$$
b1i2j
     RDKit          2D

 32 36  0  0  0  0  0  0  0  0999 V2000
    4.9006   -1.3498    0.0000 C   0  0  0  0  0  0  0  0  0  0  0  0
    5.1152   -2.8343    0.0000 C   0  0  0  0  0  0  0  0  0  0  0  0
    3.9369   -3.7625    0.0000 N   0  0  0  0  0  0  0  0  0  0  0  0
    2.5439   -3.2061    0.0000 C   0  0  0  0  0  0  0  0  0  0  0  0
    2.3292   -1.7215    0.0000 C   0  0  0  0  0  0  0  0  0  0  0  0
    3.5076   -0.7934    0.0000 N   0  0  0  0  0  0  0  0  0  0  0  0
    3.2929    0.6912    0.0000 C   0  0  0  0  0  0  0  0  0  0  0  0
    4.4713    1.6194    0.0000 O   0  0  0  0  0  0  0  0  0  0  0  0
    1.8999    1.2476    0.0000 C   0  0  0  0  0  0  0  0  0  0  0  0
    1.5313    2.7016    0.0000 C   0  0  0  0  0  0  0  0  0  0  0  0
    2.3651    3.9484    0.0000 C   0  0  0  0  0  0  0  0  0  0  0  0
    1.7022    5.2940    0.0000 C   0  0  0  0  0  0  0  0  0  0  0  0
    0.2055    5.3927    0.0000 C   0  0  0  0  0  0  0  0  0  0  0  0
   -0.6284    4.1458    0.0000 C   0  0  0  0  0  0  0  0  0  0  0  0
    0.0345    2.8003    0.0000 C   0  0  0  0  0  0  0  0  0  0  0  0
   -0.5218    1.4073    0.0000 N   0  0  0  0  0  0  0  0  0  0  0  0
   -1.9758    1.0386    0.0000 C   0  0  0  0  0  0  0  0  0  0  0  0
   -3.0221    2.1135    0.0000 C   0  0  0  0  0  0  0  0  0  0  0  0
   -4.4761    1.7448    0.0000 C   0  0  0  0  0  0  0  0  0  0  0  0
   -4.8838    0.3013    0.0000 C   0  0  0  0  0  0  0  0  0  0  0  0
   -3.8376   -0.7735    0.0000 C   0  0  0  0  0  0  0  0  0  0  0  0
   -2.3836   -0.4049    0.0000 C   0  0  0  0  0  0  0  0  0  0  0  0
    0.6310    0.4477    0.0000 C   0  0  0  0  0  0  0  0  0  0  0  0
    0.5323   -1.0491    0.0000 O   0  0  0  0  0  0  0  0  0  0  0  0
   -0.8132   -1.7120    0.0000 C   0  0  0  0  0  0  0  0  0  0  0  0
   -2.0601   -0.8781    0.0000 C   0  0  0  0  0  0  0  0  0  0  0  0
   -3.4057   -1.5410    0.0000 C   0  0  0  0  0  0  0  0  0  0  0  0
   -3.5044   -3.0378    0.0000 C   0  0  0  0  0  0  0  0  0  0  0  0
   -2.2575   -3.8716    0.0000 C   0  0  0  0  0  0  0  0  0  0  0  0
   -0.9119   -3.2087    0.0000 C   0  0  0  0  0  0  0  0  0  0  0  0
    0.3349   -4.0426    0.0000 C   0  0  0  0  0  0  0  0  0  0  0  0
   -4.6526   -0.7072    0.0000 F   0  0  0  0  0  0  0  0  0  0  0  0
  1  2  1  0
  1  6  1  0
  2  3  1  0
  3  4  1  0
  4  5  1  0
  5  6  1  0
  6  7  1  0
  7  8  2  0
  7  9  1  0
  9 10  1  0
  9 23  2  0
 10 11  2  0
 10 15  1  0
 11 12  1  0
 12 13  2  0
 13 14  1  0
 14 15  2  0
 15 16  1  0
 16 17  1  0
 16 23  1  0
 17 18  2  0
 17 22  1  0
 18 19  1  0
 19 20  2  0
 20 21  1  0
 21 22  2  0
 23 24  1  0
 24 25  1  0
 25 26  2  0
 25 30  1  0
 26 27  1  0
 27 28  2  0
 27 32  1  0
 28 29  1  0
 29 30  2  0
 30 31  1  0
M  END
>  <EXTREG>  (11) 
b1i2j

>  <ID>  (11) 
b1i2j

>  <RENIN_IC50>  (11) 
0.0050

>  <ORIGIN>  (11) 
BMCL2010

>  <RENIN_PIC50>  (11) 
8.3010

>  <TRAIN>  (11) 
train

>  <TRAIN_CLASS>  (11) 
0

$$$$
b3a6b
     RDKit          2D

 34 38  0  0  0  0  0  0  0  0999 V2000
   -1.2176   -4.9606    0.0000 C   0  0  0  0  0  0  0  0  0  0  0  0
   -2.6778   -5.3039    0.0000 C   0  0  0  0  0  0  0  0  0  0  0  0
   -3.7052   -4.2110    0.0000 N   0  0  0  0  0  0  0  0  0  0  0  0
   -3.2725   -2.7748    0.0000 C   0  0  0  0  0  0  0  0  0  0  0  0
   -1.8123   -2.4314    0.0000 C   0  0  0  0  0  0  0  0  0  0  0  0
   -0.7849   -3.5243    0.0000 N   0  0  0  0  0  0  0  0  0  0  0  0
    0.6753   -3.1810    0.0000 C   0  0  0  0  0  0  0  0  0  0  0  0
    1.7027   -4.2739    0.0000 O   0  0  0  0  0  0  0  0  0  0  0  0
    1.1081   -1.7448    0.0000 C   0  0  0  0  0  0  0  0  0  0  0  0
    2.5243   -1.2507    0.0000 C   0  0  0  0  0  0  0  0  0  0  0  0
    3.8392   -1.9726    0.0000 C   0  0  0  0  0  0  0  0  0  0  0  0
    5.1218   -1.1948    0.0000 N   0  0  0  0  0  0  0  0  0  0  0  0
    5.0896    0.3048    0.0000 C   0  0  0  0  0  0  0  0  0  0  0  0
    3.7747    1.0267    0.0000 C   0  0  0  0  0  0  0  0  0  0  0  0
    2.4921    0.2490    0.0000 C   0  0  0  0  0  0  0  0  0  0  0  0
    1.0559    0.6817    0.0000 N   0  0  0  0  0  0  0  0  0  0  0  0
    0.5618    2.0980    0.0000 C   0  0  0  0  0  0  0  0  0  0  0  0
    1.5413    3.2340    0.0000 C   0  0  0  0  0  0  0  0  0  0  0  0
    1.0472    4.6503    0.0000 C   0  0  0  0  0  0  0  0  0  0  0  0
   -0.4264    4.9306    0.0000 C   0  0  0  0  0  0  0  0  0  0  0  0
   -1.4059    3.7946    0.0000 C   0  0  0  0  0  0  0  0  0  0  0  0
   -0.9118    2.3783    0.0000 C   0  0  0  0  0  0  0  0  0  0  0  0
    0.2005   -0.5505    0.0000 C   0  0  0  0  0  0  0  0  0  0  0  0
   -1.2992   -0.5827    0.0000 C   0  0  0  0  0  0  0  0  0  0  0  0
   -2.0769    0.6999    0.0000 C   0  0  0  0  0  0  0  0  0  0  0  0
   -1.3550    2.0147    0.0000 C   0  0  0  0  0  0  0  0  0  0  0  0
   -2.1328    3.2974    0.0000 C   0  0  0  0  0  0  0  0  0  0  0  0
   -3.6324    3.2651    0.0000 C   0  0  0  0  0  0  0  0  0  0  0  0
   -4.3543    1.9503    0.0000 C   0  0  0  0  0  0  0  0  0  0  0  0
   -3.5766    0.6676    0.0000 C   0  0  0  0  0  0  0  0  0  0  0  0
   -4.2985   -0.6472    0.0000 C   0  0  0  0  0  0  0  0  0  0  0  0
   -5.8540    1.9180    0.0000 F   0  0  0  0  0  0  0  0  0  0  0  0
    6.3722    1.0826    0.0000 O   0  0  0  0  0  0  0  0  0  0  0  0
    7.6871    0.3607    0.0000 C   0  0  0  0  0  0  0  0  0  0  0  0
  1  2  1  0
  1  6  1  0
  2  3  1  0
  3  4  1  0
  4  5  1  0
  5  6  1  0
  6  7  1  0
  7  8  2  0
  7  9  1  0
  9 10  1  0
  9 23  2  0
 10 11  2  0
 10 15  1  0
 11 12  1  0
 12 13  2  0
 13 14  1  0
 13 33  1  0
 14 15  2  0
 15 16  1  0
 16 17  1  0
 16 23  1  0
 17 18  2  0
 17 22  1  0
 18 19  1  0
 19 20  2  0
 20 21  1  0
 21 22  2  0
 23 24  1  0
 24 25  1  0
 25 26  2  0
 25 30  1  0
 26 27  1  0
 27 28  2  0
 28 29  1  0
 29 30  2  0
 29 32  1  0
 30 31  1  0
 33 34  1  0
M  END
>  <EXTREG>  (12) 
b3a6b

>  <ID>  (12) 
b3a6b

>  <RENIN_IC50>  (12) 
0.0060

>  <ORIGIN>  (12) 
BMCL2011B

>  <RENIN_PIC50>  (12) 
8.2218

>  <TRAIN>  (12) 
train

>  <TRAIN_CLASS>  (12) 
0

$$$$
b3a4b
     RDKit          2D

 33 37  0  0  0  0  0  0  0  0999 V2000
    1.1911   -4.8127    0.0000 C   0  0  0  0  0  0  0  0  0  0  0  0
    0.0190   -5.7487    0.0000 C   0  0  0  0  0  0  0  0  0  0  0  0
   -1.3777   -5.2017    0.0000 N   0  0  0  0  0  0  0  0  0  0  0  0
   -1.6023   -3.7186    0.0000 C   0  0  0  0  0  0  0  0  0  0  0  0
   -0.4302   -2.7826    0.0000 C   0  0  0  0  0  0  0  0  0  0  0  0
    0.9665   -3.3296    0.0000 N   0  0  0  0  0  0  0  0  0  0  0  0
    2.1386   -2.3935    0.0000 C   0  0  0  0  0  0  0  0  0  0  0  0
    3.5353   -2.9406    0.0000 O   0  0  0  0  0  0  0  0  0  0  0  0
    1.9140   -0.9105    0.0000 C   0  0  0  0  0  0  0  0  0  0  0  0
    2.9818    0.1430    0.0000 C   0  0  0  0  0  0  0  0  0  0  0  0
    4.4792    0.0543    0.0000 C   0  0  0  0  0  0  0  0  0  0  0  0
    5.3047    1.3068    0.0000 C   0  0  0  0  0  0  0  0  0  0  0  0
    4.6328    2.6479    0.0000 C   0  0  0  0  0  0  0  0  0  0  0  0
    3.1354    2.7365    0.0000 N   0  0  0  0  0  0  0  0  0  0  0  0
    2.3099    1.4841    0.0000 C   0  0  0  0  0  0  0  0  0  0  0  0
    0.8268    1.2595    0.0000 N   0  0  0  0  0  0  0  0  0  0  0  0
   -0.2266    2.3273    0.0000 C   0  0  0  0  0  0  0  0  0  0  0  0
    0.1714    3.7735    0.0000 C   0  0  0  0  0  0  0  0  0  0  0  0
   -0.8820    4.8414    0.0000 C   0  0  0  0  0  0  0  0  0  0  0  0
   -2.3335    4.4630    0.0000 C   0  0  0  0  0  0  0  0  0  0  0  0
   -2.7315    3.0167    0.0000 C   0  0  0  0  0  0  0  0  0  0  0  0
   -1.6781    1.9489    0.0000 C   0  0  0  0  0  0  0  0  0  0  0  0
    0.5821   -0.2204    0.0000 C   0  0  0  0  0  0  0  0  0  0  0  0
   -0.7590   -0.8923    0.0000 C   0  0  0  0  0  0  0  0  0  0  0  0
   -2.0114   -0.0669    0.0000 C   0  0  0  0  0  0  0  0  0  0  0  0
   -1.9227    1.4305    0.0000 C   0  0  0  0  0  0  0  0  0  0  0  0
   -3.1752    2.2560    0.0000 C   0  0  0  0  0  0  0  0  0  0  0  0
   -4.5163    1.5841    0.0000 C   0  0  0  0  0  0  0  0  0  0  0  0
   -4.6049    0.0867    0.0000 C   0  0  0  0  0  0  0  0  0  0  0  0
   -3.3525   -0.7388    0.0000 C   0  0  0  0  0  0  0  0  0  0  0  0
   -3.4411   -2.2361    0.0000 C   0  0  0  0  0  0  0  0  0  0  0  0
   -5.9460   -0.5852    0.0000 F   0  0  0  0  0  0  0  0  0  0  0  0
    6.8021    1.2181    0.0000 O   0  0  0  0  0  0  0  0  0  0  0  0
  1  2  1  0
  1  6  1  0
  2  3  1  0
  3  4  1  0
  4  5  1  0
  5  6  1  0
  6  7  1  0
  7  8  2  0
  7  9  1  0
  9 10  1  0
  9 23  2  0
 10 11  2  0
 10 15  1  0
 11 12  1  0
 12 13  2  0
 12 33  1  0
 13 14  1  0
 14 15  2  0
 15 16  1  0
 16 17  1  0
 16 23  1  0
 17 18  2  0
 17 22  1  0
 18 19  1  0
 19 20  2  0
 20 21  1  0
 21 22  2  0
 23 24  1  0
 24 25  1  0
 25 26  2  0
 25 30  1  0
 26 27  1  0
 27 28  2  0
 28 29  1  0
 29 30  2  0
 29 32  1  0
 30 31  1  0
M  END
>  <EXTREG>  (13) 
b3a4b

>  <ID>  (13) 
b3a4b

>  <RENIN_IC50>  (13) 
0.0060

>  <ORIGIN>  (13) 
BMCL2011B

>  <RENIN_PIC50>  (13) 
8.2218

>  <TRAIN>  (13) 
train

>  <TRAIN_CLASS>  (13) 
0

$$$$
b3a4a
     RDKit          2D

 33 37  0  0  0  0  0  0  0  0999 V2000
    3.3503   -3.8001    0.0000 C   0  0  0  0  0  0  0  0  0  0  0  0
    2.7743   -5.1851    0.0000 C   0  0  0  0  0  0  0  0  0  0  0  0
    1.2868   -5.3788    0.0000 N   0  0  0  0  0  0  0  0  0  0  0  0
    0.3754   -4.1875    0.0000 C   0  0  0  0  0  0  0  0  0  0  0  0
    0.9513   -2.8024    0.0000 C   0  0  0  0  0  0  0  0  0  0  0  0
    2.4388   -2.6087    0.0000 N   0  0  0  0  0  0  0  0  0  0  0  0
    3.0148   -1.2237    0.0000 C   0  0  0  0  0  0  0  0  0  0  0  0
    4.5022   -1.0300    0.0000 O   0  0  0  0  0  0  0  0  0  0  0  0
    2.1033   -0.0324    0.0000 C   0  0  0  0  0  0  0  0  0  0  0  0
    2.5313    1.4052    0.0000 C   0  0  0  0  0  0  0  0  0  0  0  0
    3.8861    2.0491    0.0000 C   0  0  0  0  0  0  0  0  0  0  0  0
    4.0059    3.5443    0.0000 C   0  0  0  0  0  0  0  0  0  0  0  0
    2.7709    4.3956    0.0000 C   0  0  0  0  0  0  0  0  0  0  0  0
    1.4161    3.7518    0.0000 N   0  0  0  0  0  0  0  0  0  0  0  0
    1.2963    2.2566    0.0000 C   0  0  0  0  0  0  0  0  0  0  0  0
    0.1050    1.3451    0.0000 N   0  0  0  0  0  0  0  0  0  0  0  0
   -1.3326    1.7731    0.0000 C   0  0  0  0  0  0  0  0  0  0  0  0
   -2.4221    0.7421    0.0000 C   0  0  0  0  0  0  0  0  0  0  0  0
   -3.8598    1.1702    0.0000 C   0  0  0  0  0  0  0  0  0  0  0  0
   -4.2079    2.6292    0.0000 C   0  0  0  0  0  0  0  0  0  0  0  0
   -3.1184    3.6602    0.0000 C   0  0  0  0  0  0  0  0  0  0  0  0
   -1.6807    3.2322    0.0000 C   0  0  0  0  0  0  0  0  0  0  0  0
    0.6037   -0.0696    0.0000 C   0  0  0  0  0  0  0  0  0  0  0  0
   -0.2476   -1.3046    0.0000 O   0  0  0  0  0  0  0  0  0  0  0  0
   -1.7428   -1.1848    0.0000 C   0  0  0  0  0  0  0  0  0  0  0  0
   -2.5942   -2.4198    0.0000 C   0  0  0  0  0  0  0  0  0  0  0  0
   -4.0894   -2.3000    0.0000 C   0  0  0  0  0  0  0  0  0  0  0  0
   -4.7332   -0.9452    0.0000 C   0  0  0  0  0  0  0  0  0  0  0  0
   -3.8819    0.2898    0.0000 C   0  0  0  0  0  0  0  0  0  0  0  0
   -2.3867    0.1700    0.0000 C   0  0  0  0  0  0  0  0  0  0  0  0
   -4.5257    1.6446    0.0000 F   0  0  0  0  0  0  0  0  0  0  0  0
   -1.9503   -3.7746    0.0000 C   0  0  0  0  0  0  0  0  0  0  0  0
    5.3607    4.1881    0.0000 O   0  0  0  0  0  0  0  0  0  0  0  0
  1  2  1  0
  1  6  1  0
  2  3  1  0
  3  4  1  0
  4  5  1  0
  5  6  1  0
  6  7  1  0
  7  8  2  0
  7  9  1  0
  9 10  1  0
  9 23  2  0
 10 11  2  0
 10 15  1  0
 11 12  1  0
 12 13  2  0
 12 33  1  0
 13 14  1  0
 14 15  2  0
 15 16  1  0
 16 17  1  0
 16 23  1  0
 17 18  2  0
 17 22  1  0
 18 19  1  0
 19 20  2  0
 20 21  1  0
 21 22  2  0
 23 24  1  0
 24 25  1  0
 25 26  2  0
 25 30  1  0
 26 27  1  0
 26 32  1  0
 27 28  2  0
 28 29  1  0
 29 30  2  0
 29 31  1  0
M  END
>  <EXTREG>  (14) 
b3a4a

>  <ID>  (14) 
b3a4a

>  <RENIN_IC50>  (14) 
0.0060

>  <ORIGIN>  (14) 
BMCL2011B

>  <RENIN_PIC50>  (14) 
8.2218

>  <TRAIN>  (14) 
train

>  <TRAIN_CLASS>  (14) 
0

$$$$
b1i5d
     RDKit          2D

 35 39  0  0  0  0  0  0  0  0999 V2000
    0.7019   -5.0004    0.0000 C   0  0  0  0  0  0  0  0  0  0  0  0
   -0.4657   -5.9421    0.0000 C   0  0  0  0  0  0  0  0  0  0  0  0
   -1.8650   -5.4017    0.0000 N   0  0  0  0  0  0  0  0  0  0  0  0
   -2.0967   -3.9197    0.0000 C   0  0  0  0  0  0  0  0  0  0  0  0
   -0.9291   -2.9781    0.0000 C   0  0  0  0  0  0  0  0  0  0  0  0
    0.4702   -3.5184    0.0000 N   0  0  0  0  0  0  0  0  0  0  0  0
    1.6378   -2.5768    0.0000 C   0  0  0  0  0  0  0  0  0  0  0  0
    3.0371   -3.1171    0.0000 O   0  0  0  0  0  0  0  0  0  0  0  0
    1.4061   -1.0948    0.0000 C   0  0  0  0  0  0  0  0  0  0  0  0
    2.4689   -0.0362    0.0000 C   0  0  0  0  0  0  0  0  0  0  0  0
    3.9667   -0.1177    0.0000 C   0  0  0  0  0  0  0  0  0  0  0  0
    4.7861    1.1386    0.0000 C   0  0  0  0  0  0  0  0  0  0  0  0
    4.1078    2.4765    0.0000 C   0  0  0  0  0  0  0  0  0  0  0  0
    2.6100    2.5580    0.0000 C   0  0  0  0  0  0  0  0  0  0  0  0
    1.7905    1.3016    0.0000 C   0  0  0  0  0  0  0  0  0  0  0  0
    0.3086    1.0699    0.0000 N   0  0  0  0  0  0  0  0  0  0  0  0
   -0.7500    2.1327    0.0000 C   0  0  0  0  0  0  0  0  0  0  0  0
   -0.3589    3.5808    0.0000 C   0  0  0  0  0  0  0  0  0  0  0  0
   -1.4174    4.6436    0.0000 C   0  0  0  0  0  0  0  0  0  0  0  0
   -2.8671    4.2583    0.0000 C   0  0  0  0  0  0  0  0  0  0  0  0
   -3.2582    2.8102    0.0000 C   0  0  0  0  0  0  0  0  0  0  0  0
   -2.1996    1.7474    0.0000 C   0  0  0  0  0  0  0  0  0  0  0  0
    0.0709   -0.4111    0.0000 C   0  0  0  0  0  0  0  0  0  0  0  0
   -1.2669   -1.0894    0.0000 O   0  0  0  0  0  0  0  0  0  0  0  0
   -2.5233   -0.2700    0.0000 C   0  0  0  0  0  0  0  0  0  0  0  0
   -2.4418    1.2278    0.0000 C   0  0  0  0  0  0  0  0  0  0  0  0
   -3.6982    2.0473    0.0000 C   0  0  0  0  0  0  0  0  0  0  0  0
   -5.0360    1.3690    0.0000 C   0  0  0  0  0  0  0  0  0  0  0  0
   -5.1175   -0.1288    0.0000 C   0  0  0  0  0  0  0  0  0  0  0  0
   -3.8612   -0.9483    0.0000 C   0  0  0  0  0  0  0  0  0  0  0  0
   -3.9427   -2.4461    0.0000 C   0  0  0  0  0  0  0  0  0  0  0  0
   -3.6167    3.5451    0.0000 F   0  0  0  0  0  0  0  0  0  0  0  0
    6.2839    1.0572    0.0000 C   0  0  0  0  0  0  0  0  0  0  0  0
    6.9622   -0.2807    0.0000 N   0  0  0  0  0  0  0  0  0  0  0  0
    7.1034    2.3135    0.0000 O   0  0  0  0  0  0  0  0  0  0  0  0
  1  2  1  0
  1  6  1  0
  2  3  1  0
  3  4  1  0
  4  5  1  0
  5  6  1  0
  6  7  1  0
  7  8  2  0
  7  9  1  0
  9 10  1  0
  9 23  2  0
 10 11  2  0
 10 15  1  0
 11 12  1  0
 12 13  2  0
 12 33  1  0
 13 14  1  0
 14 15  2  0
 15 16  1  0
 16 17  1  0
 16 23  1  0
 17 18  2  0
 17 22  1  0
 18 19  1  0
 19 20  2  0
 20 21  1  0
 21 22  2  0
 23 24  1  0
 24 25  1  0
 25 26  2  0
 25 30  1  0
 26 27  1  0
 27 28  2  0
 27 32  1  0
 28 29  1  0
 29 30  2  0
 30 31  1  0
 33 34  1  0
 33 35  2  0
M  END
>  <EXTREG>  (15) 
b1i5d

>  <ID>  (15) 
b1i5d

>  <RENIN_IC50>  (15) 
0.0060

>  <ORIGIN>  (15) 
BMCL2010

>  <RENIN_PIC50>  (15) 
8.2218

>  <TRAIN>  (15) 
train

>  <TRAIN_CLASS>  (15) 
0

$$$$
b3f5g
     RDKit          2D

 32 36  0  0  0  0  0  0  0  0999 V2000
    3.4020   -3.6323    0.0000 C   0  0  0  0  0  0  0  0  0  0  0  0
    2.7765   -4.9957    0.0000 C   0  0  0  0  0  0  0  0  0  0  0  0
    1.2830   -5.1356    0.0000 N   0  0  0  0  0  0  0  0  0  0  0  0
    0.4151   -3.9122    0.0000 C   0  0  0  0  0  0  0  0  0  0  0  0
    1.0406   -2.5489    0.0000 C   0  0  0  0  0  0  0  0  0  0  0  0
    2.5341   -2.4089    0.0000 N   0  0  0  0  0  0  0  0  0  0  0  0
    3.1596   -1.0456    0.0000 C   0  0  0  0  0  0  0  0  0  0  0  0
    4.6531   -0.9056    0.0000 O   0  0  0  0  0  0  0  0  0  0  0  0
    2.2917    0.1778    0.0000 C   0  0  0  0  0  0  0  0  0  0  0  0
    2.7713    1.5991    0.0000 C   0  0  0  0  0  0  0  0  0  0  0  0
    4.1484    2.1937    0.0000 C   0  0  0  0  0  0  0  0  0  0  0  0
    4.3220    3.6836    0.0000 N   0  0  0  0  0  0  0  0  0  0  0  0
    3.1185    4.5789    0.0000 C   0  0  0  0  0  0  0  0  0  0  0  0
    1.7414    3.9843    0.0000 C   0  0  0  0  0  0  0  0  0  0  0  0
    1.5678    2.4944    0.0000 C   0  0  0  0  0  0  0  0  0  0  0  0
    0.3444    1.6265    0.0000 N   0  0  0  0  0  0  0  0  0  0  0  0
   -1.0769    2.1061    0.0000 C   0  0  0  0  0  0  0  0  0  0  0  0
   -1.3722    3.5767    0.0000 C   0  0  0  0  0  0  0  0  0  0  0  0
   -2.7934    4.0563    0.0000 C   0  0  0  0  0  0  0  0  0  0  0  0
   -3.9194    3.0653    0.0000 C   0  0  0  0  0  0  0  0  0  0  0  0
   -3.6241    1.5946    0.0000 C   0  0  0  0  0  0  0  0  0  0  0  0
   -2.2029    1.1150    0.0000 C   0  0  0  0  0  0  0  0  0  0  0  0
    0.7918    0.1947    0.0000 C   0  0  0  0  0  0  0  0  0  0  0  0
   -0.1036   -1.0088    0.0000 C   0  0  0  0  0  0  0  0  0  0  0  0
   -1.5935   -0.8351    0.0000 C   0  0  0  0  0  0  0  0  0  0  0  0
   -2.1881    0.5420    0.0000 C   0  0  0  0  0  0  0  0  0  0  0  0
   -3.6780    0.7156    0.0000 C   0  0  0  0  0  0  0  0  0  0  0  0
   -4.5733   -0.4879    0.0000 C   0  0  0  0  0  0  0  0  0  0  0  0
   -3.9787   -1.8650    0.0000 C   0  0  0  0  0  0  0  0  0  0  0  0
   -2.4888   -2.0386    0.0000 C   0  0  0  0  0  0  0  0  0  0  0  0
   -1.8942   -3.4157    0.0000 C   0  0  0  0  0  0  0  0  0  0  0  0
   -4.8740   -3.0685    0.0000 F   0  0  0  0  0  0  0  0  0  0  0  0
  1  2  1  0
  1  6  1  0
  2  3  1  0
  3  4  1  0
  4  5  1  0
  5  6  1  0
  6  7  1  0
  7  8  2  0
  7  9  1  0
  9 10  1  0
  9 23  2  0
 10 11  2  0
 10 15  1  0
 11 12  1  0
 12 13  2  0
 13 14  1  0
 14 15  2  0
 15 16  1  0
 16 17  1  0
 16 23  1  0
 17 18  2  0
 17 22  1  0
 18 19  1  0
 19 20  2  0
 20 21  1  0
 21 22  2  0
 23 24  1  0
 24 25  1  0
 25 26  2  0
 25 30  1  0
 26 27  1  0
 27 28  2  0
 28 29  1  0
 29 30  2  0
 29 32  1  0
 30 31  1  0
M  END
>  <EXTREG>  (16) 
b3f5g

>  <ID>  (16) 
b3f5g

>  <RENIN_IC50>  (16) 
0.0080

>  <ORIGIN>  (16) 
BMCL2011B

>  <RENIN_PIC50>  (16) 
8.0969

>  <TRAIN>  (16) 
train

>  <TRAIN_CLASS>  (16) 
0

$$$$
b2a5g
     RDKit          2D

 33 37  0  0  0  0  0  0  0  0999 V2000
   -0.6180   -5.0086    0.0000 C   0  0  0  0  0  0  0  0  0  0  0  0
   -2.0490   -5.4584    0.0000 C   0  0  0  0  0  0  0  0  0  0  0  0
   -3.1540   -4.4440    0.0000 N   0  0  0  0  0  0  0  0  0  0  0  0
   -2.8281   -2.9799    0.0000 C   0  0  0  0  0  0  0  0  0  0  0  0
   -1.3971   -2.5301    0.0000 C   0  0  0  0  0  0  0  0  0  0  0  0
   -0.2921   -3.5445    0.0000 N   0  0  0  0  0  0  0  0  0  0  0  0
    1.1389   -3.0947    0.0000 C   0  0  0  0  0  0  0  0  0  0  0  0
    2.2439   -4.1091    0.0000 O   0  0  0  0  0  0  0  0  0  0  0  0
    1.4649   -1.6305    0.0000 C   0  0  0  0  0  0  0  0  0  0  0  0
    2.8410   -1.0336    0.0000 C   0  0  0  0  0  0  0  0  0  0  0  0
    4.2054   -1.6569    0.0000 N   0  0  0  0  0  0  0  0  0  0  0  0
    5.4273   -0.7869    0.0000 C   0  0  0  0  0  0  0  0  0  0  0  0
    5.2849    0.7063    0.0000 C   0  0  0  0  0  0  0  0  0  0  0  0
    3.9205    1.3295    0.0000 C   0  0  0  0  0  0  0  0  0  0  0  0
    2.6986    0.4596    0.0000 C   0  0  0  0  0  0  0  0  0  0  0  0
    1.2344    0.7855    0.0000 N   0  0  0  0  0  0  0  0  0  0  0  0
    0.6375    2.1617    0.0000 C   0  0  0  0  0  0  0  0  0  0  0  0
   -0.8527    2.3328    0.0000 C   0  0  0  0  0  0  0  0  0  0  0  0
   -1.4496    3.7089    0.0000 C   0  0  0  0  0  0  0  0  0  0  0  0
   -0.5563    4.9139    0.0000 C   0  0  0  0  0  0  0  0  0  0  0  0
    0.9339    4.7428    0.0000 C   0  0  0  0  0  0  0  0  0  0  0  0
    1.5308    3.3667    0.0000 C   0  0  0  0  0  0  0  0  0  0  0  0
    0.4719   -0.5062    0.0000 C   0  0  0  0  0  0  0  0  0  0  0  0
   -1.0213   -0.6487    0.0000 C   0  0  0  0  0  0  0  0  0  0  0  0
   -1.8912    0.5733    0.0000 C   0  0  0  0  0  0  0  0  0  0  0  0
   -1.2680    1.9377    0.0000 C   0  0  0  0  0  0  0  0  0  0  0  0
   -2.1380    3.1596    0.0000 C   0  0  0  0  0  0  0  0  0  0  0  0
   -3.6312    3.0172    0.0000 C   0  0  0  0  0  0  0  0  0  0  0  0
   -4.2544    1.6528    0.0000 C   0  0  0  0  0  0  0  0  0  0  0  0
   -3.3845    0.4308    0.0000 C   0  0  0  0  0  0  0  0  0  0  0  0
   -4.0077   -0.9335    0.0000 C   0  0  0  0  0  0  0  0  0  0  0  0
   -5.7477    1.5104    0.0000 F   0  0  0  0  0  0  0  0  0  0  0  0
    6.5068    1.5763    0.0000 C   0  0  0  0  0  0  0  0  0  0  0  0
  1  2  1  0
  1  6  1  0
  2  3  1  0
  3  4  1  0
  4  5  1  0
  5  6  1  0
  6  7  1  0
  7  8  2  0
  7  9  1  0
  9 10  1  0
  9 23  2  0
 10 11  2  0
 10 15  1  0
 11 12  1  0
 12 13  2  0
 13 14  1  0
 13 33  1  0
 14 15  2  0
 15 16  1  0
 16 17  1  0
 16 23  1  0
 17 18  2  0
 17 22  1  0
 18 19  1  0
 19 20  2  0
 20 21  1  0
 21 22  2  0
 23 24  1  0
 24 25  1  0
 25 26  2  0
 25 30  1  0
 26 27  1  0
 27 28  2  0
 28 29  1  0
 29 30  2  0
 29 32  1  0
 30 31  1  0
M  END
>  <EXTREG>  (17) 
b2a5g

>  <ID>  (17) 
b2a5g

>  <RENIN_IC50>  (17) 
0.0090

>  <ORIGIN>  (17) 
BMCL2011A

>  <RENIN_PIC50>  (17) 
8.0458

>  <TRAIN>  (17) 
train

>  <TRAIN_CLASS>  (17) 
0

$$$$
b1i2n
     RDKit          2D

 32 36  0  0  0  0  0  0  0  0999 V2000
    3.4020   -3.6323    0.0000 C   0  0  0  0  0  0  0  0  0  0  0  0
    2.7765   -4.9957    0.0000 C   0  0  0  0  0  0  0  0  0  0  0  0
    1.2830   -5.1356    0.0000 N   0  0  0  0  0  0  0  0  0  0  0  0
    0.4151   -3.9122    0.0000 C   0  0  0  0  0  0  0  0  0  0  0  0
    1.0406   -2.5489    0.0000 C   0  0  0  0  0  0  0  0  0  0  0  0
    2.5341   -2.4089    0.0000 N   0  0  0  0  0  0  0  0  0  0  0  0
    3.1596   -1.0456    0.0000 C   0  0  0  0  0  0  0  0  0  0  0  0
    4.6531   -0.9056    0.0000 O   0  0  0  0  0  0  0  0  0  0  0  0
    2.2917    0.1778    0.0000 C   0  0  0  0  0  0  0  0  0  0  0  0
    2.7713    1.5991    0.0000 C   0  0  0  0  0  0  0  0  0  0  0  0
    4.1484    2.1937    0.0000 C   0  0  0  0  0  0  0  0  0  0  0  0
    4.3220    3.6836    0.0000 C   0  0  0  0  0  0  0  0  0  0  0  0
    3.1185    4.5789    0.0000 C   0  0  0  0  0  0  0  0  0  0  0  0
    1.7414    3.9843    0.0000 C   0  0  0  0  0  0  0  0  0  0  0  0
    1.5678    2.4944    0.0000 C   0  0  0  0  0  0  0  0  0  0  0  0
    0.3444    1.6265    0.0000 N   0  0  0  0  0  0  0  0  0  0  0  0
   -1.0769    2.1061    0.0000 C   0  0  0  0  0  0  0  0  0  0  0  0
   -2.2029    1.1150    0.0000 C   0  0  0  0  0  0  0  0  0  0  0  0
   -3.6241    1.5946    0.0000 C   0  0  0  0  0  0  0  0  0  0  0  0
   -3.9194    3.0653    0.0000 C   0  0  0  0  0  0  0  0  0  0  0  0
   -2.7934    4.0563    0.0000 C   0  0  0  0  0  0  0  0  0  0  0  0
   -1.3722    3.5767    0.0000 C   0  0  0  0  0  0  0  0  0  0  0  0
    0.7918    0.1947    0.0000 C   0  0  0  0  0  0  0  0  0  0  0  0
   -0.1036   -1.0088    0.0000 C   0  0  0  0  0  0  0  0  0  0  0  0
   -1.5935   -0.8351    0.0000 C   0  0  0  0  0  0  0  0  0  0  0  0
   -2.4888   -2.0386    0.0000 C   0  0  0  0  0  0  0  0  0  0  0  0
   -3.9787   -1.8650    0.0000 C   0  0  0  0  0  0  0  0  0  0  0  0
   -4.5733   -0.4879    0.0000 C   0  0  0  0  0  0  0  0  0  0  0  0
   -3.6780    0.7156    0.0000 C   0  0  0  0  0  0  0  0  0  0  0  0
   -2.1881    0.5420    0.0000 C   0  0  0  0  0  0  0  0  0  0  0  0
   -4.8740   -3.0685    0.0000 F   0  0  0  0  0  0  0  0  0  0  0  0
   -1.8942   -3.4157    0.0000 C   0  0  0  0  0  0  0  0  0  0  0  0
  1  2  1  0
  1  6  1  0
  2  3  1  0
  3  4  1  0
  4  5  1  0
  5  6  1  0
  6  7  1  0
  7  8  2  0
  7  9  1  0
  9 10  1  0
  9 23  2  0
 10 11  2  0
 10 15  1  0
 11 12  1  0
 12 13  2  0
 13 14  1  0
 14 15  2  0
 15 16  1  0
 16 17  1  0
 16 23  1  0
 17 18  2  0
 17 22  1  0
 18 19  1  0
 19 20  2  0
 20 21  1  0
 21 22  2  0
 23 24  1  0
 24 25  1  0
 25 26  2  0
 25 30  1  0
 26 27  1  0
 26 32  1  0
 27 28  2  0
 27 31  1  0
 28 29  1  0
 29 30  2  0
M  END
>  <EXTREG>  (18) 
b1i2n

>  <ID>  (18) 
b1i2n

>  <RENIN_IC50>  (18) 
0.0090

>  <ORIGIN>  (18) 
BMCL2010

>  <RENIN_PIC50>  (18) 
8.0458

>  <TRAIN>  (18) 
train

>  <TRAIN_CLASS>  (18) 
0

$$$$
b3a7a
     RDKit          2D

 34 38  0  0  0  0  0  0  0  0999 V2000
   -3.8680   -3.2905    0.0000 C   0  0  0  0  0  0  0  0  0  0  0  0
   -5.2267   -2.6549    0.0000 C   0  0  0  0  0  0  0  0  0  0  0  0
   -5.3555   -1.1604    0.0000 N   0  0  0  0  0  0  0  0  0  0  0  0
   -4.1257   -0.3016    0.0000 C   0  0  0  0  0  0  0  0  0  0  0  0
   -2.7670   -0.9373    0.0000 C   0  0  0  0  0  0  0  0  0  0  0  0
   -2.6382   -2.4317    0.0000 N   0  0  0  0  0  0  0  0  0  0  0  0
   -1.2795   -3.0674    0.0000 C   0  0  0  0  0  0  0  0  0  0  0  0
   -1.1507   -4.5618    0.0000 O   0  0  0  0  0  0  0  0  0  0  0  0
   -0.0497   -2.2086    0.0000 C   0  0  0  0  0  0  0  0  0  0  0  0
    1.3679   -2.6987    0.0000 C   0  0  0  0  0  0  0  0  0  0  0  0
    1.9523   -4.0802    0.0000 C   0  0  0  0  0  0  0  0  0  0  0  0
    3.4409   -4.2649    0.0000 N   0  0  0  0  0  0  0  0  0  0  0  0
    4.3451   -3.0681    0.0000 C   0  0  0  0  0  0  0  0  0  0  0  0
    3.7608   -1.6866    0.0000 C   0  0  0  0  0  0  0  0  0  0  0  0
    2.2722   -1.5019    0.0000 C   0  0  0  0  0  0  0  0  0  0  0  0
    1.4134   -0.2721    0.0000 N   0  0  0  0  0  0  0  0  0  0  0  0
    1.9035    1.1456    0.0000 C   0  0  0  0  0  0  0  0  0  0  0  0
    0.9209    2.2789    0.0000 C   0  0  0  0  0  0  0  0  0  0  0  0
    1.4110    3.6965    0.0000 C   0  0  0  0  0  0  0  0  0  0  0  0
    2.8838    3.9809    0.0000 C   0  0  0  0  0  0  0  0  0  0  0  0
    3.8665    2.8476    0.0000 C   0  0  0  0  0  0  0  0  0  0  0  0
    3.3763    1.4299    0.0000 C   0  0  0  0  0  0  0  0  0  0  0  0
   -0.0216   -0.7088    0.0000 C   0  0  0  0  0  0  0  0  0  0  0  0
   -1.2184    0.1954    0.0000 O   0  0  0  0  0  0  0  0  0  0  0  0
   -1.0338    1.6840    0.0000 C   0  0  0  0  0  0  0  0  0  0  0  0
   -2.2306    2.5882    0.0000 C   0  0  0  0  0  0  0  0  0  0  0  0
   -2.0459    4.0768    0.0000 C   0  0  0  0  0  0  0  0  0  0  0  0
   -0.6644    4.6612    0.0000 C   0  0  0  0  0  0  0  0  0  0  0  0
    0.5324    3.7569    0.0000 C   0  0  0  0  0  0  0  0  0  0  0  0
    0.3477    2.2683    0.0000 C   0  0  0  0  0  0  0  0  0  0  0  0
    1.9139    4.3413    0.0000 F   0  0  0  0  0  0  0  0  0  0  0  0
   -3.6121    2.0039    0.0000 C   0  0  0  0  0  0  0  0  0  0  0  0
    5.8337   -3.2528    0.0000 O   0  0  0  0  0  0  0  0  0  0  0  0
   -4.2545    1.1928    0.0000 C   0  0  0  0  0  0  0  0  0  0  0  0
  1  2  1  0
  1  6  1  0
  2  3  1  0
  3  4  1  0
  4  5  1  0
  4 34  1  0
  5  6  1  0
  6  7  1  0
  7  8  2  0
  7  9  1  0
  9 10  1  0
  9 23  2  0
 10 11  2  0
 10 15  1  0
 11 12  1  0
 12 13  1  0
 13 14  1  0
 13 33  2  0
 14 15  2  0
 15 16  1  0
 16 17  1  0
 16 23  1  0
 17 18  1  0
 17 22  1  0
 18 19  1  0
 19 20  1  0
 20 21  1  0
 21 22  1  0
 23 24  1  0
 24 25  1  0
 25 26  2  0
 25 30  1  0
 26 27  1  0
 26 32  1  0
 27 28  2  0
 28 29  1  0
 29 30  2  0
 29 31  1  0
M  END
>  <EXTREG>  (19) 
b3a7a

>  <ID>  (19) 
b3a7a

>  <RENIN_IC50>  (19) 
0.0110

>  <ORIGIN>  (19) 
BMCL2011B

>  <RENIN_PIC50>  (19) 
7.9586

>  <TRAIN>  (19) 
train

>  <TRAIN_CLASS>  (19) 
0

$$$$
b1i2l
     RDKit          2D

 32 36  0  0  0  0  0  0  0  0999 V2000
    3.4020   -3.6323    0.0000 C   0  0  0  0  0  0  0  0  0  0  0  0
    2.7765   -4.9957    0.0000 C   0  0  0  0  0  0  0  0  0  0  0  0
    1.2830   -5.1356    0.0000 N   0  0  0  0  0  0  0  0  0  0  0  0
    0.4151   -3.9122    0.0000 C   0  0  0  0  0  0  0  0  0  0  0  0
    1.0406   -2.5489    0.0000 C   0  0  0  0  0  0  0  0  0  0  0  0
    2.5341   -2.4089    0.0000 N   0  0  0  0  0  0  0  0  0  0  0  0
    3.1596   -1.0456    0.0000 C   0  0  0  0  0  0  0  0  0  0  0  0
    4.6531   -0.9056    0.0000 O   0  0  0  0  0  0  0  0  0  0  0  0
    2.2917    0.1778    0.0000 C   0  0  0  0  0  0  0  0  0  0  0  0
    2.7713    1.5991    0.0000 C   0  0  0  0  0  0  0  0  0  0  0  0
    4.1484    2.1937    0.0000 C   0  0  0  0  0  0  0  0  0  0  0  0
    4.3220    3.6836    0.0000 C   0  0  0  0  0  0  0  0  0  0  0  0
    3.1185    4.5789    0.0000 C   0  0  0  0  0  0  0  0  0  0  0  0
    1.7414    3.9843    0.0000 C   0  0  0  0  0  0  0  0  0  0  0  0
    1.5678    2.4944    0.0000 C   0  0  0  0  0  0  0  0  0  0  0  0
    0.3444    1.6265    0.0000 N   0  0  0  0  0  0  0  0  0  0  0  0
   -1.0769    2.1061    0.0000 C   0  0  0  0  0  0  0  0  0  0  0  0
   -2.2029    1.1150    0.0000 C   0  0  0  0  0  0  0  0  0  0  0  0
   -3.6241    1.5946    0.0000 C   0  0  0  0  0  0  0  0  0  0  0  0
   -3.9194    3.0653    0.0000 C   0  0  0  0  0  0  0  0  0  0  0  0
   -2.7934    4.0563    0.0000 C   0  0  0  0  0  0  0  0  0  0  0  0
   -1.3722    3.5767    0.0000 C   0  0  0  0  0  0  0  0  0  0  0  0
    0.7918    0.1947    0.0000 C   0  0  0  0  0  0  0  0  0  0  0  0
   -0.1036   -1.0088    0.0000 O   0  0  0  0  0  0  0  0  0  0  0  0
   -1.5935   -0.8351    0.0000 C   0  0  0  0  0  0  0  0  0  0  0  0
   -2.4888   -2.0386    0.0000 C   0  0  0  0  0  0  0  0  0  0  0  0
   -3.9787   -1.8650    0.0000 C   0  0  0  0  0  0  0  0  0  0  0  0
   -4.5733   -0.4879    0.0000 C   0  0  0  0  0  0  0  0  0  0  0  0
   -3.6780    0.7156    0.0000 C   0  0  0  0  0  0  0  0  0  0  0  0
   -2.1881    0.5420    0.0000 C   0  0  0  0  0  0  0  0  0  0  0  0
   -4.8740   -3.0685    0.0000 F   0  0  0  0  0  0  0  0  0  0  0  0
   -1.8942   -3.4157    0.0000 C   0  0  0  0  0  0  0  0  0  0  0  0
  1  2  1  0
  1  6  1  0
  2  3  1  0
  3  4  1  0
  4  5  1  0
  5  6  1  0
  6  7  1  0
  7  8  2  0
  7  9  1  0
  9 10  1  0
  9 23  2  0
 10 11  2  0
 10 15  1  0
 11 12  1  0
 12 13  2  0
 13 14  1  0
 14 15  2  0
 15 16  1  0
 16 17  1  0
 16 23  1  0
 17 18  2  0
 17 22  1  0
 18 19  1  0
 19 20  2  0
 20 21  1  0
 21 22  2  0
 23 24  1  0
 24 25  1  0
 25 26  2  0
 25 30  1  0
 26 27  1  0
 26 32  1  0
 27 28  2  0
 27 31  1  0
 28 29  1  0
 29 30  2  0
M  END
>  <EXTREG>  (20) 
b1i2l

>  <ID>  (20) 
b1i2l

>  <RENIN_IC50>  (20) 
0.0110

>  <ORIGIN>  (20) 
BMCL2010

>  <RENIN_PIC50>  (20) 
7.9586

>  <TRAIN>  (20) 
train

>  <TRAIN_CLASS>  (20) 
0

$$$$
b1i5h
     RDKit          2D

 34 38  0  0  0  0  0  0  0  0999 V2000
   -1.2176   -4.9606    0.0000 C   0  0  0  0  0  0  0  0  0  0  0  0
   -2.6778   -5.3039    0.0000 C   0  0  0  0  0  0  0  0  0  0  0  0
   -3.7052   -4.2110    0.0000 N   0  0  0  0  0  0  0  0  0  0  0  0
   -3.2725   -2.7748    0.0000 C   0  0  0  0  0  0  0  0  0  0  0  0
   -1.8123   -2.4314    0.0000 C   0  0  0  0  0  0  0  0  0  0  0  0
   -0.7849   -3.5243    0.0000 N   0  0  0  0  0  0  0  0  0  0  0  0
    0.6753   -3.1810    0.0000 C   0  0  0  0  0  0  0  0  0  0  0  0
    1.7027   -4.2739    0.0000 O   0  0  0  0  0  0  0  0  0  0  0  0
    1.1081   -1.7448    0.0000 C   0  0  0  0  0  0  0  0  0  0  0  0
    2.5243   -1.2507    0.0000 C   0  0  0  0  0  0  0  0  0  0  0  0
    3.8392   -1.9726    0.0000 C   0  0  0  0  0  0  0  0  0  0  0  0
    5.1218   -1.1948    0.0000 C   0  0  0  0  0  0  0  0  0  0  0  0
    5.0896    0.3048    0.0000 C   0  0  0  0  0  0  0  0  0  0  0  0
    3.7747    1.0267    0.0000 C   0  0  0  0  0  0  0  0  0  0  0  0
    2.4921    0.2490    0.0000 C   0  0  0  0  0  0  0  0  0  0  0  0
    1.0559    0.6817    0.0000 N   0  0  0  0  0  0  0  0  0  0  0  0
    0.5618    2.0980    0.0000 C   0  0  0  0  0  0  0  0  0  0  0  0
   -0.9118    2.3783    0.0000 C   0  0  0  0  0  0  0  0  0  0  0  0
   -1.4059    3.7946    0.0000 C   0  0  0  0  0  0  0  0  0  0  0  0
   -0.4264    4.9306    0.0000 C   0  0  0  0  0  0  0  0  0  0  0  0
    1.0472    4.6503    0.0000 C   0  0  0  0  0  0  0  0  0  0  0  0
    1.5413    3.2340    0.0000 C   0  0  0  0  0  0  0  0  0  0  0  0
    0.2005   -0.5505    0.0000 C   0  0  0  0  0  0  0  0  0  0  0  0
   -1.2992   -0.5827    0.0000 C   0  0  0  0  0  0  0  0  0  0  0  0
   -2.0769    0.6999    0.0000 C   0  0  0  0  0  0  0  0  0  0  0  0
   -3.5766    0.6676    0.0000 C   0  0  0  0  0  0  0  0  0  0  0  0
   -4.3543    1.9503    0.0000 C   0  0  0  0  0  0  0  0  0  0  0  0
   -3.6324    3.2651    0.0000 C   0  0  0  0  0  0  0  0  0  0  0  0
   -2.1328    3.2974    0.0000 C   0  0  0  0  0  0  0  0  0  0  0  0
   -1.3550    2.0147    0.0000 C   0  0  0  0  0  0  0  0  0  0  0  0
   -5.8540    1.9180    0.0000 F   0  0  0  0  0  0  0  0  0  0  0  0
   -4.2985   -0.6472    0.0000 C   0  0  0  0  0  0  0  0  0  0  0  0
    6.3722    1.0826    0.0000 O   0  0  0  0  0  0  0  0  0  0  0  0
    7.6871    0.3607    0.0000 C   0  0  0  0  0  0  0  0  0  0  0  0
  1  2  1  0
  1  6  1  0
  2  3  1  0
  3  4  1  0
  4  5  1  0
  5  6  1  0
  6  7  1  0
  7  8  2  0
  7  9  1  0
  9 10  1  0
  9 23  2  0
 10 11  2  0
 10 15  1  0
 11 12  1  0
 12 13  2  0
 13 14  1  0
 13 33  1  0
 14 15  2  0
 15 16  1  0
 16 17  1  0
 16 23  1  0
 17 18  2  0
 17 22  1  0
 18 19  1  0
 19 20  2  0
 20 21  1  0
 21 22  2  0
 23 24  1  0
 24 25  1  0
 25 26  2  0
 25 30  1  0
 26 27  1  0
 26 32  1  0
 27 28  2  0
 27 31  1  0
 28 29  1  0
 29 30  2  0
 33 34  1  0
M  END
>  <EXTREG>  (21) 
b1i5h

>  <ID>  (21) 
b1i5h

>  <RENIN_IC50>  (21) 
0.0120

>  <ORIGIN>  (21) 
BMCL2010

>  <RENIN_PIC50>  (21) 
7.9208

>  <TRAIN>  (21) 
train

>  <TRAIN_CLASS>  (21) 
0

$$$$
b2a3t
     RDKit          2D

 32 36  0  0  0  0  0  0  0  0999 V2000
    3.4020   -3.6323    0.0000 C   0  0  0  0  0  0  0  0  0  0  0  0
    2.7765   -4.9957    0.0000 C   0  0  0  0  0  0  0  0  0  0  0  0
    1.2830   -5.1356    0.0000 N   0  0  0  0  0  0  0  0  0  0  0  0
    0.4151   -3.9122    0.0000 C   0  0  0  0  0  0  0  0  0  0  0  0
    1.0406   -2.5489    0.0000 C   0  0  0  0  0  0  0  0  0  0  0  0
    2.5341   -2.4089    0.0000 N   0  0  0  0  0  0  0  0  0  0  0  0
    3.1596   -1.0456    0.0000 C   0  0  0  0  0  0  0  0  0  0  0  0
    4.6531   -0.9056    0.0000 O   0  0  0  0  0  0  0  0  0  0  0  0
    2.2917    0.1778    0.0000 C   0  0  0  0  0  0  0  0  0  0  0  0
    2.7713    1.5991    0.0000 C   0  0  0  0  0  0  0  0  0  0  0  0
    4.1484    2.1937    0.0000 N   0  0  0  0  0  0  0  0  0  0  0  0
    4.3220    3.6836    0.0000 C   0  0  0  0  0  0  0  0  0  0  0  0
    3.1185    4.5789    0.0000 C   0  0  0  0  0  0  0  0  0  0  0  0
    1.7414    3.9843    0.0000 C   0  0  0  0  0  0  0  0  0  0  0  0
    1.5678    2.4944    0.0000 C   0  0  0  0  0  0  0  0  0  0  0  0
    0.3444    1.6265    0.0000 N   0  0  0  0  0  0  0  0  0  0  0  0
   -1.0769    2.1061    0.0000 C   0  0  0  0  0  0  0  0  0  0  0  0
   -1.3722    3.5767    0.0000 C   0  0  0  0  0  0  0  0  0  0  0  0
   -2.7934    4.0563    0.0000 C   0  0  0  0  0  0  0  0  0  0  0  0
   -3.9194    3.0653    0.0000 C   0  0  0  0  0  0  0  0  0  0  0  0
   -3.6241    1.5946    0.0000 C   0  0  0  0  0  0  0  0  0  0  0  0
   -2.2029    1.1150    0.0000 C   0  0  0  0  0  0  0  0  0  0  0  0
    0.7918    0.1947    0.0000 C   0  0  0  0  0  0  0  0  0  0  0  0
   -0.1036   -1.0088    0.0000 C   0  0  0  0  0  0  0  0  0  0  0  0
   -1.5935   -0.8351    0.0000 C   0  0  0  0  0  0  0  0  0  0  0  0
   -2.1881    0.5420    0.0000 C   0  0  0  0  0  0  0  0  0  0  0  0
   -3.6780    0.7156    0.0000 C   0  0  0  0  0  0  0  0  0  0  0  0
   -4.5733   -0.4879    0.0000 C   0  0  0  0  0  0  0  0  0  0  0  0
   -3.9787   -1.8650    0.0000 C   0  0  0  0  0  0  0  0  0  0  0  0
   -2.4888   -2.0386    0.0000 C   0  0  0  0  0  0  0  0  0  0  0  0
   -1.8942   -3.4157    0.0000 C   0  0  0  0  0  0  0  0  0  0  0  0
   -4.8740   -3.0685    0.0000 F   0  0  0  0  0  0  0  0  0  0  0  0
  1  2  1  0
  1  6  1  0
  2  3  1  0
  3  4  1  0
  4  5  1  0
  5  6  1  0
  6  7  1  0
  7  8  2  0
  7  9  1  0
  9 10  1  0
  9 23  2  0
 10 11  2  0
 10 15  1  0
 11 12  1  0
 12 13  2  0
 13 14  1  0
 14 15  2  0
 15 16  1  0
 16 17  1  0
 16 23  1  0
 17 18  2  0
 17 22  1  0
 18 19  1  0
 19 20  2  0
 20 21  1  0
 21 22  2  0
 23 24  1  0
 24 25  1  0
 25 26  2  0
 25 30  1  0
 26 27  1  0
 27 28  2  0
 28 29  1  0
 29 30  2  0
 29 32  1  0
 30 31  1  0
M  END
>  <EXTREG>  (22) 
b2a3t

>  <ID>  (22) 
b2a3t

>  <RENIN_IC50>  (22) 
0.0120

>  <ORIGIN>  (22) 
BMCL2011A

>  <RENIN_PIC50>  (22) 
7.9208

>  <TRAIN>  (22) 
test

>  <TRAIN_CLASS>  (22) 
1

$$$$
b2a3l
     RDKit          2D

 32 36  0  0  0  0  0  0  0  0999 V2000
   -4.9661    0.7617    0.0000 C   0  0  0  0  0  0  0  0  0  0  0  0
   -5.3688    2.2066    0.0000 C   0  0  0  0  0  0  0  0  0  0  0  0
   -4.3188    3.2779    0.0000 N   0  0  0  0  0  0  0  0  0  0  0  0
   -2.8661    2.9042    0.0000 C   0  0  0  0  0  0  0  0  0  0  0  0
   -2.4634    1.4593    0.0000 C   0  0  0  0  0  0  0  0  0  0  0  0
   -3.5134    0.3880    0.0000 N   0  0  0  0  0  0  0  0  0  0  0  0
   -3.1106   -1.0569    0.0000 C   0  0  0  0  0  0  0  0  0  0  0  0
   -4.1606   -2.1281    0.0000 O   0  0  0  0  0  0  0  0  0  0  0  0
   -1.6579   -1.4306    0.0000 C   0  0  0  0  0  0  0  0  0  0  0  0
   -1.1064   -2.8255    0.0000 C   0  0  0  0  0  0  0  0  0  0  0  0
   -1.7739   -4.1687    0.0000 N   0  0  0  0  0  0  0  0  0  0  0  0
   -0.9444   -5.4185    0.0000 C   0  0  0  0  0  0  0  0  0  0  0  0
    0.5527   -5.3250    0.0000 C   0  0  0  0  0  0  0  0  0  0  0  0
    1.2203   -3.9817    0.0000 C   0  0  0  0  0  0  0  0  0  0  0  0
    0.3907   -2.7319    0.0000 C   0  0  0  0  0  0  0  0  0  0  0  0
    0.7644   -1.2792    0.0000 N   0  0  0  0  0  0  0  0  0  0  0  0
    2.1593   -0.7277    0.0000 C   0  0  0  0  0  0  0  0  0  0  0  0
    2.3791    0.7561    0.0000 C   0  0  0  0  0  0  0  0  0  0  0  0
    3.7740    1.3077    0.0000 C   0  0  0  0  0  0  0  0  0  0  0  0
    4.9491    0.3755    0.0000 C   0  0  0  0  0  0  0  0  0  0  0  0
    4.7294   -1.1083    0.0000 C   0  0  0  0  0  0  0  0  0  0  0  0
    3.3344   -1.6599    0.0000 C   0  0  0  0  0  0  0  0  0  0  0  0
   -0.5017   -0.4749    0.0000 C   0  0  0  0  0  0  0  0  0  0  0  0
   -0.5953    1.0221    0.0000 O   0  0  0  0  0  0  0  0  0  0  0  0
    0.6545    1.8517    0.0000 C   0  0  0  0  0  0  0  0  0  0  0  0
    0.5610    3.3488    0.0000 C   0  0  0  0  0  0  0  0  0  0  0  0
    1.8107    4.1783    0.0000 C   0  0  0  0  0  0  0  0  0  0  0  0
    3.1540    3.5107    0.0000 C   0  0  0  0  0  0  0  0  0  0  0  0
    3.2475    2.0137    0.0000 C   0  0  0  0  0  0  0  0  0  0  0  0
    1.9978    1.1841    0.0000 C   0  0  0  0  0  0  0  0  0  0  0  0
    2.4508   -0.2458    0.0000 C   0  0  0  0  0  0  0  0  0  0  0  0
   -0.7823    4.0163    0.0000 C   0  0  0  0  0  0  0  0  0  0  0  0
  1  2  1  0
  1  6  1  0
  2  3  1  0
  3  4  1  0
  4  5  1  0
  5  6  1  0
  6  7  1  0
  7  8  2  0
  7  9  1  0
  9 10  1  0
  9 23  2  0
 10 11  2  0
 10 15  1  0
 11 12  1  0
 12 13  2  0
 13 14  1  0
 14 15  2  0
 15 16  1  0
 16 17  1  0
 16 23  1  0
 17 18  2  0
 17 22  1  0
 18 19  1  0
 19 20  2  0
 20 21  1  0
 21 22  2  0
 23 24  1  0
 24 25  1  0
 25 26  2  0
 25 30  1  0
 26 27  1  0
 26 32  1  0
 27 28  2  0
 28 29  1  0
 29 30  2  0
 30 31  1  0
M  END
>  <EXTREG>  (23) 
b2a3l

>  <ID>  (23) 
b2a3l

>  <RENIN_IC50>  (23) 
0.0140

>  <ORIGIN>  (23) 
BMCL2011A

>  <RENIN_PIC50>  (23) 
7.8539

>  <TRAIN>  (23) 
test

>  <TRAIN_CLASS>  (23) 
1

$$$$
b2a6f
     RDKit          2D

 32 36  0  0  0  0  0  0  0  0999 V2000
    3.4020   -3.6323    0.0000 C   0  0  0  0  0  0  0  0  0  0  0  0
    2.7765   -4.9957    0.0000 C   0  0  0  0  0  0  0  0  0  0  0  0
    1.2830   -5.1356    0.0000 N   0  0  0  0  0  0  0  0  0  0  0  0
    0.4151   -3.9122    0.0000 C   0  0  0  0  0  0  0  0  0  0  0  0
    1.0406   -2.5489    0.0000 C   0  0  0  0  0  0  0  0  0  0  0  0
    2.5341   -2.4089    0.0000 N   0  0  0  0  0  0  0  0  0  0  0  0
    3.1596   -1.0456    0.0000 C   0  0  0  0  0  0  0  0  0  0  0  0
    4.6531   -0.9056    0.0000 O   0  0  0  0  0  0  0  0  0  0  0  0
    2.2917    0.1778    0.0000 C   0  0  0  0  0  0  0  0  0  0  0  0
    2.7713    1.5991    0.0000 C   0  0  0  0  0  0  0  0  0  0  0  0
    4.1484    2.1937    0.0000 C   0  0  0  0  0  0  0  0  0  0  0  0
    4.3220    3.6836    0.0000 C   0  0  0  0  0  0  0  0  0  0  0  0
    3.1185    4.5789    0.0000 N   0  0  0  0  0  0  0  0  0  0  0  0
    1.7414    3.9843    0.0000 C   0  0  0  0  0  0  0  0  0  0  0  0
    1.5678    2.4944    0.0000 C   0  0  0  0  0  0  0  0  0  0  0  0
    0.3444    1.6265    0.0000 N   0  0  0  0  0  0  0  0  0  0  0  0
   -1.0769    2.1061    0.0000 C   0  0  0  0  0  0  0  0  0  0  0  0
   -1.3722    3.5767    0.0000 C   0  0  0  0  0  0  0  0  0  0  0  0
   -2.7934    4.0563    0.0000 C   0  0  0  0  0  0  0  0  0  0  0  0
   -3.9194    3.0653    0.0000 C   0  0  0  0  0  0  0  0  0  0  0  0
   -3.6241    1.5946    0.0000 C   0  0  0  0  0  0  0  0  0  0  0  0
   -2.2029    1.1150    0.0000 C   0  0  0  0  0  0  0  0  0  0  0  0
    0.7918    0.1947    0.0000 C   0  0  0  0  0  0  0  0  0  0  0  0
   -0.1036   -1.0088    0.0000 C   0  0  0  0  0  0  0  0  0  0  0  0
   -1.5935   -0.8351    0.0000 C   0  0  0  0  0  0  0  0  0  0  0  0
   -2.1881    0.5420    0.0000 C   0  0  0  0  0  0  0  0  0  0  0  0
   -3.6780    0.7156    0.0000 C   0  0  0  0  0  0  0  0  0  0  0  0
   -4.5733   -0.4879    0.0000 C   0  0  0  0  0  0  0  0  0  0  0  0
   -3.9787   -1.8650    0.0000 C   0  0  0  0  0  0  0  0  0  0  0  0
   -2.4888   -2.0386    0.0000 C   0  0  0  0  0  0  0  0  0  0  0  0
   -1.8942   -3.4157    0.0000 C   0  0  0  0  0  0  0  0  0  0  0  0
   -4.8740   -3.0685    0.0000 F   0  0  0  0  0  0  0  0  0  0  0  0
  1  2  1  0
  1  6  1  0
  2  3  1  0
  3  4  1  0
  4  5  1  0
  5  6  1  0
  6  7  1  0
  7  8  2  0
  7  9  1  0
  9 10  1  0
  9 23  2  0
 10 11  2  0
 10 15  1  0
 11 12  1  0
 12 13  2  0
 13 14  1  0
 14 15  2  0
 15 16  1  0
 16 17  1  0
 16 23  1  0
 17 18  2  0
 17 22  1  0
 18 19  1  0
 19 20  2  0
 20 21  1  0
 21 22  2  0
 23 24  1  0
 24 25  1  0
 25 26  2  0
 25 30  1  0
 26 27  1  0
 27 28  2  0
 28 29  1  0
 29 30  2  0
 29 32  1  0
 30 31  1  0
M  END
>  <EXTREG>  (24) 
b2a6f

>  <ID>  (24) 
b2a6f

>  <RENIN_IC50>  (24) 
0.0140

>  <ORIGIN>  (24) 
BMCL2011A

>  <RENIN_PIC50>  (24) 
7.8539

>  <TRAIN>  (24) 
train

>  <TRAIN_CLASS>  (24) 
0

$$$$
b2a5c
     RDKit          2D

 33 37  0  0  0  0  0  0  0  0999 V2000
   -5.1541    0.0419    0.0000 C   0  0  0  0  0  0  0  0  0  0  0  0
   -5.7953    1.3979    0.0000 C   0  0  0  0  0  0  0  0  0  0  0  0
   -4.9416    2.6313    0.0000 N   0  0  0  0  0  0  0  0  0  0  0  0
   -3.4466    2.5086    0.0000 C   0  0  0  0  0  0  0  0  0  0  0  0
   -2.8054    1.1526    0.0000 C   0  0  0  0  0  0  0  0  0  0  0  0
   -3.6591   -0.0808    0.0000 N   0  0  0  0  0  0  0  0  0  0  0  0
   -3.0179   -1.4368    0.0000 C   0  0  0  0  0  0  0  0  0  0  0  0
   -3.8716   -2.6702    0.0000 O   0  0  0  0  0  0  0  0  0  0  0  0
   -1.5229   -1.5595    0.0000 C   0  0  0  0  0  0  0  0  0  0  0  0
   -0.7434   -2.8411    0.0000 C   0  0  0  0  0  0  0  0  0  0  0  0
   -1.1743   -4.2779    0.0000 N   0  0  0  0  0  0  0  0  0  0  0  0
   -0.1454   -5.3694    0.0000 C   0  0  0  0  0  0  0  0  0  0  0  0
    1.3143   -5.0241    0.0000 C   0  0  0  0  0  0  0  0  0  0  0  0
    1.7452   -3.5873    0.0000 C   0  0  0  0  0  0  0  0  0  0  0  0
    0.7163   -2.4958    0.0000 C   0  0  0  0  0  0  0  0  0  0  0  0
    0.8390   -1.0008    0.0000 N   0  0  0  0  0  0  0  0  0  0  0  0
    2.1205   -0.2213    0.0000 C   0  0  0  0  0  0  0  0  0  0  0  0
    2.0863    1.2783    0.0000 C   0  0  0  0  0  0  0  0  0  0  0  0
    3.3679    2.0577    0.0000 C   0  0  0  0  0  0  0  0  0  0  0  0
    4.6837    1.3376    0.0000 C   0  0  0  0  0  0  0  0  0  0  0  0
    4.7179   -0.1620    0.0000 C   0  0  0  0  0  0  0  0  0  0  0  0
    3.4364   -0.9415    0.0000 C   0  0  0  0  0  0  0  0  0  0  0  0
   -0.5449   -0.4222    0.0000 C   0  0  0  0  0  0  0  0  0  0  0  0
   -0.8902    1.0376    0.0000 O   0  0  0  0  0  0  0  0  0  0  0  0
    0.2013    2.0665    0.0000 C   0  0  0  0  0  0  0  0  0  0  0  0
   -0.1440    3.5262    0.0000 C   0  0  0  0  0  0  0  0  0  0  0  0
    0.9475    4.5551    0.0000 C   0  0  0  0  0  0  0  0  0  0  0  0
    2.3843    4.1242    0.0000 C   0  0  0  0  0  0  0  0  0  0  0  0
    2.7296    2.6645    0.0000 C   0  0  0  0  0  0  0  0  0  0  0  0
    1.6381    1.6356    0.0000 C   0  0  0  0  0  0  0  0  0  0  0  0
    4.1664    2.2337    0.0000 F   0  0  0  0  0  0  0  0  0  0  0  0
   -1.5808    3.9570    0.0000 C   0  0  0  0  0  0  0  0  0  0  0  0
    2.3432   -6.1156    0.0000 C   0  0  0  0  0  0  0  0  0  0  0  0
  1  2  1  0
  1  6  1  0
  2  3  1  0
  3  4  1  0
  4  5  1  0
  5  6  1  0
  6  7  1  0
  7  8  2  0
  7  9  1  0
  9 10  1  0
  9 23  2  0
 10 11  2  0
 10 15  1  0
 11 12  1  0
 12 13  2  0
 13 14  1  0
 13 33  1  0
 14 15  2  0
 15 16  1  0
 16 17  1  0
 16 23  1  0
 17 18  2  0
 17 22  1  0
 18 19  1  0
 19 20  2  0
 20 21  1  0
 21 22  2  0
 23 24  1  0
 24 25  1  0
 25 26  2  0
 25 30  1  0
 26 27  1  0
 26 32  1  0
 27 28  2  0
 28 29  1  0
 29 30  2  0
 29 31  1  0
M  END
>  <EXTREG>  (25) 
b2a5c

>  <ID>  (25) 
b2a5c

>  <RENIN_IC50>  (25) 
0.0140

>  <ORIGIN>  (25) 
BMCL2011A

>  <RENIN_PIC50>  (25) 
7.8539

>  <TRAIN>  (25) 
train

>  <TRAIN_CLASS>  (25) 
0

$$$$
b3a4d
     RDKit          2D

 34 38  0  0  0  0  0  0  0  0999 V2000
   -1.7868   -4.9015    0.0000 C   0  0  0  0  0  0  0  0  0  0  0  0
   -3.2716   -5.1149    0.0000 C   0  0  0  0  0  0  0  0  0  0  0  0
   -4.1988   -3.9358    0.0000 N   0  0  0  0  0  0  0  0  0  0  0  0
   -3.6412   -2.5433    0.0000 C   0  0  0  0  0  0  0  0  0  0  0  0
   -2.1565   -2.3298    0.0000 C   0  0  0  0  0  0  0  0  0  0  0  0
   -1.2293   -3.5090    0.0000 N   0  0  0  0  0  0  0  0  0  0  0  0
    0.2554   -3.2955    0.0000 C   0  0  0  0  0  0  0  0  0  0  0  0
    1.1826   -4.4746    0.0000 O   0  0  0  0  0  0  0  0  0  0  0  0
    0.8130   -1.9030    0.0000 C   0  0  0  0  0  0  0  0  0  0  0  0
    2.2673   -1.5355    0.0000 C   0  0  0  0  0  0  0  0  0  0  0  0
    3.5135   -2.3704    0.0000 C   0  0  0  0  0  0  0  0  0  0  0  0
    4.8596   -1.7086    0.0000 C   0  0  0  0  0  0  0  0  0  0  0  0
    4.9595   -0.2120    0.0000 C   0  0  0  0  0  0  0  0  0  0  0  0
    3.7133    0.6229    0.0000 N   0  0  0  0  0  0  0  0  0  0  0  0
    2.3672   -0.0389    0.0000 C   0  0  0  0  0  0  0  0  0  0  0  0
    0.9747    0.5187    0.0000 N   0  0  0  0  0  0  0  0  0  0  0  0
    0.6072    1.9730    0.0000 C   0  0  0  0  0  0  0  0  0  0  0  0
   -0.8360    2.3819    0.0000 C   0  0  0  0  0  0  0  0  0  0  0  0
   -1.2034    3.8362    0.0000 C   0  0  0  0  0  0  0  0  0  0  0  0
   -0.1277    4.8816    0.0000 C   0  0  0  0  0  0  0  0  0  0  0  0
    1.3155    4.4726    0.0000 C   0  0  0  0  0  0  0  0  0  0  0  0
    1.6829    3.0183    0.0000 C   0  0  0  0  0  0  0  0  0  0  0  0
    0.0141   -0.6334    0.0000 C   0  0  0  0  0  0  0  0  0  0  0  0
   -1.4826   -0.5335    0.0000 O   0  0  0  0  0  0  0  0  0  0  0  0
   -2.1444    0.8126    0.0000 C   0  0  0  0  0  0  0  0  0  0  0  0
   -3.6410    0.9126    0.0000 C   0  0  0  0  0  0  0  0  0  0  0  0
   -4.3028    2.2587    0.0000 C   0  0  0  0  0  0  0  0  0  0  0  0
   -3.4679    3.5049    0.0000 C   0  0  0  0  0  0  0  0  0  0  0  0
   -1.9713    3.4049    0.0000 C   0  0  0  0  0  0  0  0  0  0  0  0
   -1.3095    2.0588    0.0000 C   0  0  0  0  0  0  0  0  0  0  0  0
   -1.1364    4.6511    0.0000 F   0  0  0  0  0  0  0  0  0  0  0  0
   -4.4759   -0.3336    0.0000 C   0  0  0  0  0  0  0  0  0  0  0  0
    6.3056    0.4498    0.0000 O   0  0  0  0  0  0  0  0  0  0  0  0
    7.5518   -0.3851    0.0000 C   0  0  0  0  0  0  0  0  0  0  0  0
  1  2  1  0
  1  6  1  0
  2  3  1  0
  3  4  1  0
  4  5  1  0
  5  6  1  0
  6  7  1  0
  7  8  2  0
  7  9  1  0
  9 10  1  0
  9 23  2  0
 10 11  2  0
 10 15  1  0
 11 12  1  0
 12 13  2  0
 13 14  1  0
 13 33  1  0
 14 15  2  0
 15 16  1  0
 16 17  1  0
 16 23  1  0
 17 18  2  0
 17 22  1  0
 18 19  1  0
 19 20  2  0
 20 21  1  0
 21 22  2  0
 23 24  1  0
 24 25  1  0
 25 26  2  0
 25 30  1  0
 26 27  1  0
 26 32  1  0
 27 28  2  0
 28 29  1  0
 29 30  2  0
 29 31  1  0
 33 34  1  0
M  END
>  <EXTREG>  (26) 
b3a4d

>  <ID>  (26) 
b3a4d

>  <RENIN_IC50>  (26) 
0.0150

>  <ORIGIN>  (26) 
BMCL2011B

>  <RENIN_PIC50>  (26) 
7.8239

>  <TRAIN>  (26) 
train

>  <TRAIN_CLASS>  (26) 
0

$$$$
b1i2k
     RDKit          2D

 32 36  0  0  0  0  0  0  0  0999 V2000
   -4.9661    0.7617    0.0000 C   0  0  0  0  0  0  0  0  0  0  0  0
   -5.3688    2.2066    0.0000 C   0  0  0  0  0  0  0  0  0  0  0  0
   -4.3188    3.2779    0.0000 N   0  0  0  0  0  0  0  0  0  0  0  0
   -2.8661    2.9042    0.0000 C   0  0  0  0  0  0  0  0  0  0  0  0
   -2.4634    1.4593    0.0000 C   0  0  0  0  0  0  0  0  0  0  0  0
   -3.5134    0.3880    0.0000 N   0  0  0  0  0  0  0  0  0  0  0  0
   -3.1106   -1.0569    0.0000 C   0  0  0  0  0  0  0  0  0  0  0  0
   -4.1606   -2.1281    0.0000 O   0  0  0  0  0  0  0  0  0  0  0  0
   -1.6579   -1.4306    0.0000 C   0  0  0  0  0  0  0  0  0  0  0  0
   -1.1064   -2.8255    0.0000 C   0  0  0  0  0  0  0  0  0  0  0  0
   -1.7739   -4.1687    0.0000 C   0  0  0  0  0  0  0  0  0  0  0  0
   -0.9444   -5.4185    0.0000 C   0  0  0  0  0  0  0  0  0  0  0  0
    0.5527   -5.3250    0.0000 C   0  0  0  0  0  0  0  0  0  0  0  0
    1.2203   -3.9817    0.0000 C   0  0  0  0  0  0  0  0  0  0  0  0
    0.3907   -2.7319    0.0000 C   0  0  0  0  0  0  0  0  0  0  0  0
    0.7644   -1.2792    0.0000 N   0  0  0  0  0  0  0  0  0  0  0  0
    2.1593   -0.7277    0.0000 C   0  0  0  0  0  0  0  0  0  0  0  0
    2.3791    0.7561    0.0000 C   0  0  0  0  0  0  0  0  0  0  0  0
    3.7740    1.3077    0.0000 C   0  0  0  0  0  0  0  0  0  0  0  0
    4.9491    0.3755    0.0000 C   0  0  0  0  0  0  0  0  0  0  0  0
    4.7294   -1.1083    0.0000 C   0  0  0  0  0  0  0  0  0  0  0  0
    3.3344   -1.6599    0.0000 C   0  0  0  0  0  0  0  0  0  0  0  0
   -0.5017   -0.4749    0.0000 C   0  0  0  0  0  0  0  0  0  0  0  0
   -0.5953    1.0221    0.0000 O   0  0  0  0  0  0  0  0  0  0  0  0
    0.6545    1.8517    0.0000 C   0  0  0  0  0  0  0  0  0  0  0  0
    0.5610    3.3488    0.0000 C   0  0  0  0  0  0  0  0  0  0  0  0
    1.8107    4.1783    0.0000 C   0  0  0  0  0  0  0  0  0  0  0  0
    3.1540    3.5107    0.0000 C   0  0  0  0  0  0  0  0  0  0  0  0
    3.2475    2.0137    0.0000 C   0  0  0  0  0  0  0  0  0  0  0  0
    1.9978    1.1841    0.0000 C   0  0  0  0  0  0  0  0  0  0  0  0
    2.4508   -0.2458    0.0000 C   0  0  0  0  0  0  0  0  0  0  0  0
   -0.7823    4.0163    0.0000 F   0  0  0  0  0  0  0  0  0  0  0  0
  1  2  1  0
  1  6  1  0
  2  3  1  0
  3  4  1  0
  4  5  1  0
  5  6  1  0
  6  7  1  0
  7  8  2  0
  7  9  1  0
  9 10  1  0
  9 23  2  0
 10 11  2  0
 10 15  1  0
 11 12  1  0
 12 13  2  0
 13 14  1  0
 14 15  2  0
 15 16  1  0
 16 17  1  0
 16 23  1  0
 17 18  2  0
 17 22  1  0
 18 19  1  0
 19 20  2  0
 20 21  1  0
 21 22  2  0
 23 24  1  0
 24 25  1  0
 25 26  2  0
 25 30  1  0
 26 27  1  0
 26 32  1  0
 27 28  2  0
 28 29  1  0
 29 30  2  0
 30 31  1  0
M  END
>  <EXTREG>  (27) 
b1i2k

>  <ID>  (27) 
b1i2k

>  <RENIN_IC50>  (27) 
0.0160

>  <ORIGIN>  (27) 
BMCL2010

>  <RENIN_PIC50>  (27) 
7.7959

>  <TRAIN>  (27) 
train

>  <TRAIN_CLASS>  (27) 
0

$$$$
b1i2o
     RDKit          2D

 32 36  0  0  0  0  0  0  0  0999 V2000
   -4.9661    0.7617    0.0000 C   0  0  0  0  0  0  0  0  0  0  0  0
   -5.3688    2.2066    0.0000 C   0  0  0  0  0  0  0  0  0  0  0  0
   -4.3188    3.2779    0.0000 N   0  0  0  0  0  0  0  0  0  0  0  0
   -2.8661    2.9042    0.0000 C   0  0  0  0  0  0  0  0  0  0  0  0
   -2.4634    1.4593    0.0000 C   0  0  0  0  0  0  0  0  0  0  0  0
   -3.5134    0.3880    0.0000 N   0  0  0  0  0  0  0  0  0  0  0  0
   -3.1106   -1.0569    0.0000 C   0  0  0  0  0  0  0  0  0  0  0  0
   -4.1606   -2.1281    0.0000 O   0  0  0  0  0  0  0  0  0  0  0  0
   -1.6579   -1.4306    0.0000 C   0  0  0  0  0  0  0  0  0  0  0  0
   -1.1064   -2.8255    0.0000 C   0  0  0  0  0  0  0  0  0  0  0  0
   -1.7739   -4.1687    0.0000 C   0  0  0  0  0  0  0  0  0  0  0  0
   -0.9444   -5.4185    0.0000 C   0  0  0  0  0  0  0  0  0  0  0  0
    0.5527   -5.3250    0.0000 C   0  0  0  0  0  0  0  0  0  0  0  0
    1.2203   -3.9817    0.0000 C   0  0  0  0  0  0  0  0  0  0  0  0
    0.3907   -2.7319    0.0000 C   0  0  0  0  0  0  0  0  0  0  0  0
    0.7644   -1.2792    0.0000 N   0  0  0  0  0  0  0  0  0  0  0  0
    2.1593   -0.7277    0.0000 C   0  0  0  0  0  0  0  0  0  0  0  0
    2.3791    0.7561    0.0000 C   0  0  0  0  0  0  0  0  0  0  0  0
    3.7740    1.3077    0.0000 C   0  0  0  0  0  0  0  0  0  0  0  0
    4.9491    0.3755    0.0000 C   0  0  0  0  0  0  0  0  0  0  0  0
    4.7294   -1.1083    0.0000 C   0  0  0  0  0  0  0  0  0  0  0  0
    3.3344   -1.6599    0.0000 C   0  0  0  0  0  0  0  0  0  0  0  0
   -0.5017   -0.4749    0.0000 C   0  0  0  0  0  0  0  0  0  0  0  0
   -0.5953    1.0221    0.0000 C   0  0  0  0  0  0  0  0  0  0  0  0
    0.6545    1.8517    0.0000 C   0  0  0  0  0  0  0  0  0  0  0  0
    0.5610    3.3488    0.0000 C   0  0  0  0  0  0  0  0  0  0  0  0
    1.8107    4.1783    0.0000 C   0  0  0  0  0  0  0  0  0  0  0  0
    3.1540    3.5107    0.0000 C   0  0  0  0  0  0  0  0  0  0  0  0
    3.2475    2.0137    0.0000 C   0  0  0  0  0  0  0  0  0  0  0  0
    1.9978    1.1841    0.0000 C   0  0  0  0  0  0  0  0  0  0  0  0
    2.4508   -0.2458    0.0000 F   0  0  0  0  0  0  0  0  0  0  0  0
   -0.7823    4.0163    0.0000 Cl  0  0  0  0  0  0  0  0  0  0  0  0
  1  2  1  0
  1  6  1  0
  2  3  1  0
  3  4  1  0
  4  5  1  0
  5  6  1  0
  6  7  1  0
  7  8  2  0
  7  9  1  0
  9 10  1  0
  9 23  2  0
 10 11  2  0
 10 15  1  0
 11 12  1  0
 12 13  2  0
 13 14  1  0
 14 15  2  0
 15 16  1  0
 16 17  1  0
 16 23  1  0
 17 18  2  0
 17 22  1  0
 18 19  1  0
 19 20  2  0
 20 21  1  0
 21 22  2  0
 23 24  1  0
 24 25  1  0
 25 26  2  0
 25 30  1  0
 26 27  1  0
 26 32  1  0
 27 28  2  0
 28 29  1  0
 29 30  2  0
 30 31  1  0
M  END
>  <EXTREG>  (28) 
b1i2o

>  <ID>  (28) 
b1i2o

>  <RENIN_IC50>  (28) 
0.0180

>  <ORIGIN>  (28) 
BMCL2010

>  <RENIN_PIC50>  (28) 
7.7447

>  <TRAIN>  (28) 
train

>  <TRAIN_CLASS>  (28) 
0

$$$$
b1i4f
     RDKit          2D

 31 35  0  0  0  0  0  0  0  0999 V2000
    1.5440   -4.5754    0.0000 C   0  0  0  0  0  0  0  0  0  0  0  0
    0.4137   -5.5615    0.0000 C   0  0  0  0  0  0  0  0  0  0  0  0
   -1.0055   -5.0756    0.0000 N   0  0  0  0  0  0  0  0  0  0  0  0
   -1.2943   -3.6037    0.0000 C   0  0  0  0  0  0  0  0  0  0  0  0
   -0.1639   -2.6176    0.0000 C   0  0  0  0  0  0  0  0  0  0  0  0
    1.2552   -3.1035    0.0000 N   0  0  0  0  0  0  0  0  0  0  0  0
    2.3856   -2.1174    0.0000 C   0  0  0  0  0  0  0  0  0  0  0  0
    3.8047   -2.6033    0.0000 O   0  0  0  0  0  0  0  0  0  0  0  0
    2.0968   -0.6455    0.0000 C   0  0  0  0  0  0  0  0  0  0  0  0
    3.1178    0.4533    0.0000 C   0  0  0  0  0  0  0  0  0  0  0  0
    4.6177    0.4298    0.0000 C   0  0  0  0  0  0  0  0  0  0  0  0
    5.3880    1.7169    0.0000 C   0  0  0  0  0  0  0  0  0  0  0  0
    4.6585    3.0275    0.0000 C   0  0  0  0  0  0  0  0  0  0  0  0
    3.1587    3.0511    0.0000 C   0  0  0  0  0  0  0  0  0  0  0  0
    2.3883    1.7640    0.0000 C   0  0  0  0  0  0  0  0  0  0  0  0
    0.9164    1.4752    0.0000 N   0  0  0  0  0  0  0  0  0  0  0  0
   -0.1824    2.4963    0.0000 C   0  0  0  0  0  0  0  0  0  0  0  0
   -1.6544    2.2075    0.0000 C   0  0  0  0  0  0  0  0  0  0  0  0
   -2.3839    3.5182    0.0000 C   0  0  0  0  0  0  0  0  0  0  0  0
   -1.3628    4.6170    0.0000 C   0  0  0  0  0  0  0  0  0  0  0  0
   -0.0022    3.9854    0.0000 C   0  0  0  0  0  0  0  0  0  0  0  0
    0.7362   -0.0139    0.0000 C   0  0  0  0  0  0  0  0  0  0  0  0
   -0.5745   -0.7434    0.0000 C   0  0  0  0  0  0  0  0  0  0  0  0
   -1.8616    0.0269    0.0000 C   0  0  0  0  0  0  0  0  0  0  0  0
   -3.1722   -0.7026    0.0000 C   0  0  0  0  0  0  0  0  0  0  0  0
   -4.4593    0.0677    0.0000 C   0  0  0  0  0  0  0  0  0  0  0  0
   -4.4358    1.5675    0.0000 C   0  0  0  0  0  0  0  0  0  0  0  0
   -3.1251    2.2970    0.0000 C   0  0  0  0  0  0  0  0  0  0  0  0
   -1.8380    1.5267    0.0000 C   0  0  0  0  0  0  0  0  0  0  0  0
   -5.7700   -0.6618    0.0000 F   0  0  0  0  0  0  0  0  0  0  0  0
   -3.1958   -2.2025    0.0000 C   0  0  0  0  0  0  0  0  0  0  0  0
  1  2  1  0
  1  6  1  0
  2  3  1  0
  3  4  1  0
  4  5  1  0
  5  6  1  0
  6  7  1  0
  7  8  2  0
  7  9  1  0
  9 10  1  0
  9 22  2  0
 10 11  2  0
 10 15  1  0
 11 12  1  0
 12 13  2  0
 13 14  1  0
 14 15  2  0
 15 16  1  0
 16 17  1  0
 16 22  1  0
 17 18  1  0
 17 21  1  0
 18 19  1  0
 19 20  1  0
 20 21  1  0
 22 23  1  0
 23 24  1  0
 24 25  2  0
 24 29  1  0
 25 26  1  0
 25 31  1  0
 26 27  2  0
 26 30  1  0
 27 28  1  0
 28 29  2  0
M  END
>  <EXTREG>  (29) 
b1i4f

>  <ID>  (29) 
b1i4f

>  <RENIN_IC50>  (29) 
0.0200

>  <ORIGIN>  (29) 
BMCL2010

>  <RENIN_PIC50>  (29) 
7.6990

>  <TRAIN>  (29) 
test

>  <TRAIN_CLASS>  (29) 
1

$$$$
b1i2e
     RDKit          2D

 31 35  0  0  0  0  0  0  0  0999 V2000
   -4.8712    0.8500    0.0000 C   0  0  0  0  0  0  0  0  0  0  0  0
   -5.2454    2.3026    0.0000 C   0  0  0  0  0  0  0  0  0  0  0  0
   -4.1745    3.3529    0.0000 N   0  0  0  0  0  0  0  0  0  0  0  0
   -2.7294    2.9507    0.0000 C   0  0  0  0  0  0  0  0  0  0  0  0
   -2.3553    1.4981    0.0000 C   0  0  0  0  0  0  0  0  0  0  0  0
   -3.4262    0.4478    0.0000 N   0  0  0  0  0  0  0  0  0  0  0  0
   -3.0520   -1.0048    0.0000 C   0  0  0  0  0  0  0  0  0  0  0  0
   -4.1229   -2.0552    0.0000 O   0  0  0  0  0  0  0  0  0  0  0  0
   -1.6069   -1.4071    0.0000 C   0  0  0  0  0  0  0  0  0  0  0  0
   -1.0830   -2.8126    0.0000 C   0  0  0  0  0  0  0  0  0  0  0  0
   -1.7769   -4.1424    0.0000 C   0  0  0  0  0  0  0  0  0  0  0  0
   -0.9722   -5.4083    0.0000 C   0  0  0  0  0  0  0  0  0  0  0  0
    0.5265   -5.3443    0.0000 C   0  0  0  0  0  0  0  0  0  0  0  0
    1.2204   -4.0145    0.0000 C   0  0  0  0  0  0  0  0  0  0  0  0
    0.4157   -2.7486    0.0000 C   0  0  0  0  0  0  0  0  0  0  0  0
    0.8179   -1.3036    0.0000 N   0  0  0  0  0  0  0  0  0  0  0  0
    2.2234   -0.7796    0.0000 C   0  0  0  0  0  0  0  0  0  0  0  0
    3.3799   -1.7348    0.0000 C   0  0  0  0  0  0  0  0  0  0  0  0
    4.7855   -1.2109    0.0000 C   0  0  0  0  0  0  0  0  0  0  0  0
    5.0345    0.2683    0.0000 C   0  0  0  0  0  0  0  0  0  0  0  0
    3.8779    1.2235    0.0000 C   0  0  0  0  0  0  0  0  0  0  0  0
    2.4724    0.6996    0.0000 C   0  0  0  0  0  0  0  0  0  0  0  0
   -0.4321   -0.4744    0.0000 C   0  0  0  0  0  0  0  0  0  0  0  0
   -0.4961    1.0242    0.0000 O   0  0  0  0  0  0  0  0  0  0  0  0
    0.7698    1.8289    0.0000 C   0  0  0  0  0  0  0  0  0  0  0  0
    2.0996    1.1350    0.0000 C   0  0  0  0  0  0  0  0  0  0  0  0
    3.3655    1.9397    0.0000 C   0  0  0  0  0  0  0  0  0  0  0  0
    3.3015    3.4384    0.0000 C   0  0  0  0  0  0  0  0  0  0  0  0
    1.9717    4.1323    0.0000 C   0  0  0  0  0  0  0  0  0  0  0  0
    0.7058    3.3276    0.0000 C   0  0  0  0  0  0  0  0  0  0  0  0
   -0.6241    4.0215    0.0000 C   0  0  0  0  0  0  0  0  0  0  0  0
  1  2  1  0
  1  6  1  0
  2  3  1  0
  3  4  1  0
  4  5  1  0
  5  6  1  0
  6  7  1  0
  7  8  2  0
  7  9  1  0
  9 10  1  0
  9 23  2  0
 10 11  2  0
 10 15  1  0
 11 12  1  0
 12 13  2  0
 13 14  1  0
 14 15  2  0
 15 16  1  0
 16 17  1  0
 16 23  1  0
 17 18  2  0
 17 22  1  0
 18 19  1  0
 19 20  2  0
 20 21  1  0
 21 22  2  0
 23 24  1  0
 24 25  1  0
 25 26  2  0
 25 30  1  0
 26 27  1  0
 27 28  2  0
 28 29  1  0
 29 30  2  0
 30 31  1  0
M  END
>  <EXTREG>  (30) 
b1i2e

>  <ID>  (30) 
b1i2e

>  <RENIN_IC50>  (30) 
0.0210

>  <ORIGIN>  (30) 
BMCL2010

>  <RENIN_PIC50>  (30) 
7.6778

>  <TRAIN>  (30) 
test

>  <TRAIN_CLASS>  (30) 
1

$$$$
b2a3hr
     RDKit          2D

 32 36  0  0  0  0  0  0  0  0999 V2000
    4.9006   -1.3498    0.0000 C   0  0  0  0  0  0  0  0  0  0  0  0
    5.1152   -2.8343    0.0000 C   0  0  0  0  0  0  0  0  0  0  0  0
    3.9369   -3.7625    0.0000 N   0  0  0  0  0  0  0  0  0  0  0  0
    2.5439   -3.2061    0.0000 C   0  0  0  0  0  0  0  0  0  0  0  0
    2.3292   -1.7215    0.0000 C   0  0  0  0  0  0  0  0  0  0  0  0
    3.5076   -0.7934    0.0000 N   0  0  0  0  0  0  0  0  0  0  0  0
    3.2929    0.6912    0.0000 C   0  0  0  0  0  0  0  0  0  0  0  0
    4.4713    1.6194    0.0000 O   0  0  0  0  0  0  0  0  0  0  0  0
    1.8999    1.2476    0.0000 C   0  0  0  0  0  0  0  0  0  0  0  0
    1.5313    2.7016    0.0000 C   0  0  0  0  0  0  0  0  0  0  0  0
    2.3651    3.9484    0.0000 N   0  0  0  0  0  0  0  0  0  0  0  0
    1.7022    5.2940    0.0000 C   0  0  0  0  0  0  0  0  0  0  0  0
    0.2055    5.3927    0.0000 C   0  0  0  0  0  0  0  0  0  0  0  0
   -0.6284    4.1458    0.0000 C   0  0  0  0  0  0  0  0  0  0  0  0
    0.0345    2.8003    0.0000 C   0  0  0  0  0  0  0  0  0  0  0  0
   -0.5218    1.4073    0.0000 N   0  0  0  0  0  0  0  0  0  0  0  0
   -1.9758    1.0386    0.0000 C   0  0  0  0  0  0  0  0  0  0  0  0
   -3.0221    2.1135    0.0000 C   0  0  0  0  0  0  0  0  0  0  0  0
   -4.4761    1.7448    0.0000 C   0  0  0  0  0  0  0  0  0  0  0  0
   -4.8838    0.3013    0.0000 C   0  0  0  0  0  0  0  0  0  0  0  0
   -3.8376   -0.7735    0.0000 C   0  0  0  0  0  0  0  0  0  0  0  0
   -2.3836   -0.4049    0.0000 C   0  0  0  0  0  0  0  0  0  0  0  0
    0.6310    0.4477    0.0000 C   0  0  0  0  0  0  0  0  0  0  0  0
    0.5323   -1.0491    0.0000 O   0  0  0  0  0  0  0  0  0  0  0  0
   -0.8132   -1.7120    0.0000 C   0  0  0  0  0  0  0  0  0  0  0  0
   -2.0601   -0.8781    0.0000 C   0  0  0  0  0  0  0  0  0  0  0  0
   -3.4057   -1.5410    0.0000 C   0  0  0  0  0  0  0  0  0  0  0  0
   -3.5044   -3.0378    0.0000 C   0  0  0  0  0  0  0  0  0  0  0  0
   -2.2575   -3.8716    0.0000 C   0  0  0  0  0  0  0  0  0  0  0  0
   -0.9119   -3.2087    0.0000 C   0  0  0  0  0  0  0  0  0  0  0  0
    0.3349   -4.0426    0.0000 C   0  0  0  0  0  0  0  0  0  0  0  0
   -4.6526   -0.7072    0.0000 F   0  0  0  0  0  0  0  0  0  0  0  0
  1  2  1  0
  1  6  1  0
  2  3  1  0
  3  4  1  0
  4  5  1  0
  5  6  1  0
  6  7  1  0
  7  8  2  0
  7  9  1  0
  9 10  1  0
  9 23  2  0
 10 11  2  0
 10 15  1  0
 11 12  1  0
 12 13  2  0
 13 14  1  0
 14 15  2  0
 15 16  1  0
 16 17  1  0
 16 23  1  0
 17 18  2  0
 17 22  1  0
 18 19  1  0
 19 20  2  0
 20 21  1  0
 21 22  2  0
 23 24  1  0
 24 25  1  0
 25 26  2  0
 25 30  1  0
 26 27  1  0
 27 28  2  0
 27 32  1  0
 28 29  1  0
 29 30  2  0
 30 31  1  0
M  END
>  <EXTREG>  (31) 
b2a3hr

>  <ID>  (31) 
b2a3hr

>  <RENIN_IC50>  (31) 
0.0240

>  <ORIGIN>  (31) 
BMCL2011A

>  <RENIN_PIC50>  (31) 
7.6198

>  <TRAIN>  (31) 
test

>  <TRAIN_CLASS>  (31) 
1

$$$$
b1i5a
     RDKit          2D

 34 38  0  0  0  0  0  0  0  0999 V2000
   -1.7868   -4.9015    0.0000 C   0  0  0  0  0  0  0  0  0  0  0  0
   -3.2716   -5.1149    0.0000 C   0  0  0  0  0  0  0  0  0  0  0  0
   -4.1988   -3.9358    0.0000 N   0  0  0  0  0  0  0  0  0  0  0  0
   -3.6412   -2.5433    0.0000 C   0  0  0  0  0  0  0  0  0  0  0  0
   -2.1565   -2.3298    0.0000 C   0  0  0  0  0  0  0  0  0  0  0  0
   -1.2293   -3.5090    0.0000 N   0  0  0  0  0  0  0  0  0  0  0  0
    0.2554   -3.2955    0.0000 C   0  0  0  0  0  0  0  0  0  0  0  0
    1.1826   -4.4746    0.0000 O   0  0  0  0  0  0  0  0  0  0  0  0
    0.8130   -1.9030    0.0000 C   0  0  0  0  0  0  0  0  0  0  0  0
    2.2673   -1.5355    0.0000 C   0  0  0  0  0  0  0  0  0  0  0  0
    3.5135   -2.3704    0.0000 C   0  0  0  0  0  0  0  0  0  0  0  0
    4.8596   -1.7086    0.0000 C   0  0  0  0  0  0  0  0  0  0  0  0
    4.9595   -0.2120    0.0000 C   0  0  0  0  0  0  0  0  0  0  0  0
    3.7133    0.6229    0.0000 C   0  0  0  0  0  0  0  0  0  0  0  0
    2.3672   -0.0389    0.0000 C   0  0  0  0  0  0  0  0  0  0  0  0
    0.9747    0.5187    0.0000 N   0  0  0  0  0  0  0  0  0  0  0  0
    0.6072    1.9730    0.0000 C   0  0  0  0  0  0  0  0  0  0  0  0
   -0.8360    2.3819    0.0000 C   0  0  0  0  0  0  0  0  0  0  0  0
   -1.2034    3.8362    0.0000 C   0  0  0  0  0  0  0  0  0  0  0  0
   -0.1277    4.8816    0.0000 C   0  0  0  0  0  0  0  0  0  0  0  0
    1.3155    4.4726    0.0000 C   0  0  0  0  0  0  0  0  0  0  0  0
    1.6829    3.0183    0.0000 C   0  0  0  0  0  0  0  0  0  0  0  0
    0.0141   -0.6334    0.0000 C   0  0  0  0  0  0  0  0  0  0  0  0
   -1.4826   -0.5335    0.0000 O   0  0  0  0  0  0  0  0  0  0  0  0
   -2.1444    0.8126    0.0000 C   0  0  0  0  0  0  0  0  0  0  0  0
   -1.3095    2.0588    0.0000 C   0  0  0  0  0  0  0  0  0  0  0  0
   -1.9713    3.4049    0.0000 C   0  0  0  0  0  0  0  0  0  0  0  0
   -3.4679    3.5049    0.0000 C   0  0  0  0  0  0  0  0  0  0  0  0
   -4.3028    2.2587    0.0000 C   0  0  0  0  0  0  0  0  0  0  0  0
   -3.6410    0.9126    0.0000 C   0  0  0  0  0  0  0  0  0  0  0  0
   -4.4759   -0.3336    0.0000 C   0  0  0  0  0  0  0  0  0  0  0  0
   -1.1364    4.6511    0.0000 F   0  0  0  0  0  0  0  0  0  0  0  0
    6.3056    0.4498    0.0000 O   0  0  0  0  0  0  0  0  0  0  0  0
    7.5518   -0.3851    0.0000 C   0  0  0  0  0  0  0  0  0  0  0  0
  1  2  1  0
  1  6  1  0
  2  3  1  0
  3  4  1  0
  4  5  1  0
  5  6  1  0
  6  7  1  0
  7  8  2  0
  7  9  1  0
  9 10  1  0
  9 23  2  0
 10 11  2  0
 10 15  1  0
 11 12  1  0
 12 13  2  0
 13 14  1  0
 13 33  1  0
 14 15  2  0
 15 16  1  0
 16 17  1  0
 16 23  1  0
 17 18  2  0
 17 22  1  0
 18 19  1  0
 19 20  2  0
 20 21  1  0
 21 22  2  0
 23 24  1  0
 24 25  1  0
 25 26  2  0
 25 30  1  0
 26 27  1  0
 27 28  2  0
 27 32  1  0
 28 29  1  0
 29 30  2  0
 30 31  1  0
 33 34  1  0
M  END
>  <EXTREG>  (32) 
b1i5a

>  <ID>  (32) 
b1i5a

>  <RENIN_IC50>  (32) 
0.0240

>  <ORIGIN>  (32) 
BMCL2010

>  <RENIN_PIC50>  (32) 
7.6198

>  <TRAIN>  (32) 
test

>  <TRAIN_CLASS>  (32) 
1

$$$$
b3a6d
     RDKit          2D

 33 37  0  0  0  0  0  0  0  0999 V2000
   -5.1541    0.0419    0.0000 C   0  0  0  0  0  0  0  0  0  0  0  0
   -5.7953    1.3979    0.0000 C   0  0  0  0  0  0  0  0  0  0  0  0
   -4.9416    2.6313    0.0000 N   0  0  0  0  0  0  0  0  0  0  0  0
   -3.4466    2.5086    0.0000 C   0  0  0  0  0  0  0  0  0  0  0  0
   -2.8054    1.1526    0.0000 C   0  0  0  0  0  0  0  0  0  0  0  0
   -3.6591   -0.0808    0.0000 N   0  0  0  0  0  0  0  0  0  0  0  0
   -3.0179   -1.4368    0.0000 C   0  0  0  0  0  0  0  0  0  0  0  0
   -3.8716   -2.6702    0.0000 O   0  0  0  0  0  0  0  0  0  0  0  0
   -1.5229   -1.5595    0.0000 C   0  0  0  0  0  0  0  0  0  0  0  0
   -0.7434   -2.8411    0.0000 C   0  0  0  0  0  0  0  0  0  0  0  0
   -1.1743   -4.2779    0.0000 C   0  0  0  0  0  0  0  0  0  0  0  0
   -0.1454   -5.3694    0.0000 N   0  0  0  0  0  0  0  0  0  0  0  0
    1.3143   -5.0241    0.0000 C   0  0  0  0  0  0  0  0  0  0  0  0
    1.7452   -3.5873    0.0000 C   0  0  0  0  0  0  0  0  0  0  0  0
    0.7163   -2.4958    0.0000 C   0  0  0  0  0  0  0  0  0  0  0  0
    0.8390   -1.0008    0.0000 N   0  0  0  0  0  0  0  0  0  0  0  0
    2.1205   -0.2213    0.0000 C   0  0  0  0  0  0  0  0  0  0  0  0
    2.0863    1.2783    0.0000 C   0  0  0  0  0  0  0  0  0  0  0  0
    3.3679    2.0577    0.0000 C   0  0  0  0  0  0  0  0  0  0  0  0
    4.6837    1.3376    0.0000 C   0  0  0  0  0  0  0  0  0  0  0  0
    4.7179   -0.1620    0.0000 C   0  0  0  0  0  0  0  0  0  0  0  0
    3.4364   -0.9415    0.0000 C   0  0  0  0  0  0  0  0  0  0  0  0
   -0.5449   -0.4222    0.0000 C   0  0  0  0  0  0  0  0  0  0  0  0
   -0.8902    1.0376    0.0000 O   0  0  0  0  0  0  0  0  0  0  0  0
    0.2013    2.0665    0.0000 C   0  0  0  0  0  0  0  0  0  0  0  0
    1.6381    1.6356    0.0000 C   0  0  0  0  0  0  0  0  0  0  0  0
    2.7296    2.6645    0.0000 C   0  0  0  0  0  0  0  0  0  0  0  0
    2.3843    4.1242    0.0000 C   0  0  0  0  0  0  0  0  0  0  0  0
    0.9475    4.5551    0.0000 C   0  0  0  0  0  0  0  0  0  0  0  0
   -0.1440    3.5262    0.0000 C   0  0  0  0  0  0  0  0  0  0  0  0
   -1.5808    3.9570    0.0000 C   0  0  0  0  0  0  0  0  0  0  0  0
    4.1664    2.2337    0.0000 F   0  0  0  0  0  0  0  0  0  0  0  0
    2.3432   -6.1156    0.0000 O   0  0  0  0  0  0  0  0  0  0  0  0
  1  2  1  0
  1  6  1  0
  2  3  1  0
  3  4  1  0
  4  5  1  0
  5  6  1  0
  6  7  1  0
  7  8  2  0
  7  9  1  0
  9 10  1  0
  9 23  2  0
 10 11  2  0
 10 15  1  0
 11 12  1  0
 12 13  1  0
 13 14  1  0
 13 33  2  0
 14 15  2  0
 15 16  1  0
 16 17  1  0
 16 23  1  0
 17 18  2  0
 17 22  1  0
 18 19  1  0
 19 20  2  0
 20 21  1  0
 21 22  2  0
 23 24  1  0
 24 25  1  0
 25 26  2  0
 25 30  1  0
 26 27  1  0
 27 28  2  0
 27 32  1  0
 28 29  1  0
 29 30  2  0
 30 31  1  0
M  END
>  <EXTREG>  (33) 
b3a6d

>  <ID>  (33) 
b3a6d

>  <RENIN_IC50>  (33) 
0.0240

>  <ORIGIN>  (33) 
BMCL2011B

>  <RENIN_PIC50>  (33) 
7.6198

>  <TRAIN>  (33) 
train

>  <TRAIN_CLASS>  (33) 
0

$$$$
b1i5m
     RDKit          2D

 42 47  0  0  0  0  0  0  0  0999 V2000
   -4.1587   -4.7862    0.0000 C   0  0  0  0  0  0  0  0  0  0  0  0
   -5.6509   -4.9398    0.0000 C   0  0  0  0  0  0  0  0  0  0  0  0
   -6.5299   -3.7244    0.0000 N   0  0  0  0  0  0  0  0  0  0  0  0
   -5.9168   -2.3554    0.0000 C   0  0  0  0  0  0  0  0  0  0  0  0
   -4.4247   -2.2018    0.0000 C   0  0  0  0  0  0  0  0  0  0  0  0
   -3.5457   -3.4172    0.0000 N   0  0  0  0  0  0  0  0  0  0  0  0
   -2.0535   -3.2637    0.0000 C   0  0  0  0  0  0  0  0  0  0  0  0
   -1.1745   -4.4791    0.0000 O   0  0  0  0  0  0  0  0  0  0  0  0
   -1.4405   -1.8947    0.0000 C   0  0  0  0  0  0  0  0  0  0  0  0
    0.0274   -1.5860    0.0000 C   0  0  0  0  0  0  0  0  0  0  0  0
    1.2390   -2.4703    0.0000 C   0  0  0  0  0  0  0  0  0  0  0  0
    2.6107   -1.8632    0.0000 C   0  0  0  0  0  0  0  0  0  0  0  0
    2.7707   -0.3717    0.0000 C   0  0  0  0  0  0  0  0  0  0  0  0
    1.5591    0.5126    0.0000 C   0  0  0  0  0  0  0  0  0  0  0  0
    0.1874   -0.0946    0.0000 C   0  0  0  0  0  0  0  0  0  0  0  0
   -1.1816    0.5185    0.0000 N   0  0  0  0  0  0  0  0  0  0  0  0
   -1.4903    1.9864    0.0000 C   0  0  0  0  0  0  0  0  0  0  0  0
   -2.9158    2.4530    0.0000 C   0  0  0  0  0  0  0  0  0  0  0  0
   -3.2245    3.9209    0.0000 C   0  0  0  0  0  0  0  0  0  0  0  0
   -2.1076    4.9222    0.0000 C   0  0  0  0  0  0  0  0  0  0  0  0
   -0.6821    4.4556    0.0000 C   0  0  0  0  0  0  0  0  0  0  0  0
   -0.3734    2.9877    0.0000 C   0  0  0  0  0  0  0  0  0  0  0  0
   -2.1877   -0.5940    0.0000 C   0  0  0  0  0  0  0  0  0  0  0  0
   -3.6791   -0.4340    0.0000 C   0  0  0  0  0  0  0  0  0  0  0  0
   -4.2863    0.9376    0.0000 C   0  0  0  0  0  0  0  0  0  0  0  0
   -5.7777    1.0976    0.0000 C   0  0  0  0  0  0  0  0  0  0  0  0
   -6.3848    2.4693    0.0000 C   0  0  0  0  0  0  0  0  0  0  0  0
   -5.5005    3.6809    0.0000 C   0  0  0  0  0  0  0  0  0  0  0  0
   -4.0091    3.5209    0.0000 C   0  0  0  0  0  0  0  0  0  0  0  0
   -3.4020    2.1492    0.0000 C   0  0  0  0  0  0  0  0  0  0  0  0
   -7.8763    2.6293    0.0000 F   0  0  0  0  0  0  0  0  0  0  0  0
   -6.6620   -0.1140    0.0000 C   0  0  0  0  0  0  0  0  0  0  0  0
    4.1423    0.2354    0.0000 O   0  0  0  0  0  0  0  0  0  0  0  0
    5.3539   -0.6489    0.0000 C   0  0  0  0  0  0  0  0  0  0  0  0
    6.7256   -0.0417    0.0000 C   0  0  0  0  0  0  0  0  0  0  0  0
    7.9372   -0.9260    0.0000 O   0  0  0  0  0  0  0  0  0  0  0  0
    9.3088   -0.3189    0.0000 C   0  0  0  0  0  0  0  0  0  0  0  0
   10.5204   -1.2032    0.0000 C   0  0  0  0  0  0  0  0  0  0  0  0
   11.8921   -0.5961    0.0000 C   0  0  0  0  0  0  0  0  0  0  0  0
   12.0521    0.8954    0.0000 C   0  0  0  0  0  0  0  0  0  0  0  0
   10.8405    1.7797    0.0000 C   0  0  0  0  0  0  0  0  0  0  0  0
    9.4688    1.1725    0.0000 C   0  0  0  0  0  0  0  0  0  0  0  0
  1  2  1  0
  1  6  1  0
  2  3  1  0
  3  4  1  0
  4  5  1  0
  5  6  1  0
  6  7  1  0
  7  8  2  0
  7  9  1  0
  9 10  1  0
  9 23  2  0
 10 11  2  0
 10 15  1  0
 11 12  1  0
 12 13  2  0
 13 14  1  0
 13 33  1  0
 14 15  2  0
 15 16  1  0
 16 17  1  0
 16 23  1  0
 17 18  2  0
 17 22  1  0
 18 19  1  0
 19 20  2  0
 20 21  1  0
 21 22  2  0
 23 24  1  0
 24 25  1  0
 25 26  2  0
 25 30  1  0
 26 27  1  0
 26 32  1  0
 27 28  2  0
 27 31  1  0
 28 29  1  0
 29 30  2  0
 33 34  1  0
 34 35  1  0
 35 36  1  0
 36 37  1  0
 37 38  2  0
 37 42  1  0
 38 39  1  0
 39 40  2  0
 40 41  1  0
 41 42  2  0
M  END
>  <EXTREG>  (34) 
b1i5m

>  <ID>  (34) 
b1i5m

>  <RENIN_IC50>  (34) 
0.0240

>  <ORIGIN>  (34) 
BMCL2010

>  <RENIN_PIC50>  (34) 
7.6198

>  <TRAIN>  (34) 
train

>  <TRAIN_CLASS>  (34) 
0

$$$$
b2a6b
     RDKit          2D

 32 36  0  0  0  0  0  0  0  0999 V2000
    4.9006   -1.3498    0.0000 C   0  0  0  0  0  0  0  0  0  0  0  0
    5.1152   -2.8343    0.0000 C   0  0  0  0  0  0  0  0  0  0  0  0
    3.9369   -3.7625    0.0000 N   0  0  0  0  0  0  0  0  0  0  0  0
    2.5439   -3.2061    0.0000 C   0  0  0  0  0  0  0  0  0  0  0  0
    2.3292   -1.7215    0.0000 C   0  0  0  0  0  0  0  0  0  0  0  0
    3.5076   -0.7934    0.0000 N   0  0  0  0  0  0  0  0  0  0  0  0
    3.2929    0.6912    0.0000 C   0  0  0  0  0  0  0  0  0  0  0  0
    4.4713    1.6194    0.0000 O   0  0  0  0  0  0  0  0  0  0  0  0
    1.8999    1.2476    0.0000 C   0  0  0  0  0  0  0  0  0  0  0  0
    1.5313    2.7016    0.0000 C   0  0  0  0  0  0  0  0  0  0  0  0
    2.3651    3.9484    0.0000 C   0  0  0  0  0  0  0  0  0  0  0  0
    1.7022    5.2940    0.0000 C   0  0  0  0  0  0  0  0  0  0  0  0
    0.2055    5.3927    0.0000 N   0  0  0  0  0  0  0  0  0  0  0  0
   -0.6284    4.1458    0.0000 C   0  0  0  0  0  0  0  0  0  0  0  0
    0.0345    2.8003    0.0000 C   0  0  0  0  0  0  0  0  0  0  0  0
   -0.5218    1.4073    0.0000 N   0  0  0  0  0  0  0  0  0  0  0  0
   -1.9758    1.0386    0.0000 C   0  0  0  0  0  0  0  0  0  0  0  0
   -3.0221    2.1135    0.0000 C   0  0  0  0  0  0  0  0  0  0  0  0
   -4.4761    1.7448    0.0000 C   0  0  0  0  0  0  0  0  0  0  0  0
   -4.8838    0.3013    0.0000 C   0  0  0  0  0  0  0  0  0  0  0  0
   -3.8376   -0.7735    0.0000 C   0  0  0  0  0  0  0  0  0  0  0  0
   -2.3836   -0.4049    0.0000 C   0  0  0  0  0  0  0  0  0  0  0  0
    0.6310    0.4477    0.0000 C   0  0  0  0  0  0  0  0  0  0  0  0
    0.5323   -1.0491    0.0000 O   0  0  0  0  0  0  0  0  0  0  0  0
   -0.8132   -1.7120    0.0000 C   0  0  0  0  0  0  0  0  0  0  0  0
   -2.0601   -0.8781    0.0000 C   0  0  0  0  0  0  0  0  0  0  0  0
   -3.4057   -1.5410    0.0000 C   0  0  0  0  0  0  0  0  0  0  0  0
   -3.5044   -3.0378    0.0000 C   0  0  0  0  0  0  0  0  0  0  0  0
   -2.2575   -3.8716    0.0000 C   0  0  0  0  0  0  0  0  0  0  0  0
   -0.9119   -3.2087    0.0000 C   0  0  0  0  0  0  0  0  0  0  0  0
    0.3349   -4.0426    0.0000 C   0  0  0  0  0  0  0  0  0  0  0  0
   -4.6526   -0.7072    0.0000 F   0  0  0  0  0  0  0  0  0  0  0  0
  1  2  1  0
  1  6  1  0
  2  3  1  0
  3  4  1  0
  4  5  1  0
  5  6  1  0
  6  7  1  0
  7  8  2  0
  7  9  1  0
  9 10  1  0
  9 23  2  0
 10 11  2  0
 10 15  1  0
 11 12  1  0
 12 13  2  0
 13 14  1  0
 14 15  2  0
 15 16  1  0
 16 17  1  0
 16 23  1  0
 17 18  2  0
 17 22  1  0
 18 19  1  0
 19 20  2  0
 20 21  1  0
 21 22  2  0
 23 24  1  0
 24 25  1  0
 25 26  2  0
 25 30  1  0
 26 27  1  0
 27 28  2  0
 27 32  1  0
 28 29  1  0
 29 30  2  0
 30 31  1  0
M  END
>  <EXTREG>  (35) 
b2a6b

>  <ID>  (35) 
b2a6b

>  <RENIN_IC50>  (35) 
0.0270

>  <ORIGIN>  (35) 
BMCL2011A

>  <RENIN_PIC50>  (35) 
7.5686

>  <TRAIN>  (35) 
train

>  <TRAIN_CLASS>  (35) 
0

$$$$
b1i5f
     RDKit          2D

 38 42  0  0  0  0  0  0  0  0999 V2000
   -2.6168   -4.9753    0.0000 C   0  0  0  0  0  0  0  0  0  0  0  0
   -4.0894   -5.2604    0.0000 C   0  0  0  0  0  0  0  0  0  0  0  0
   -5.0727   -4.1275    0.0000 N   0  0  0  0  0  0  0  0  0  0  0  0
   -4.5832   -2.7096    0.0000 C   0  0  0  0  0  0  0  0  0  0  0  0
   -3.1105   -2.4246    0.0000 C   0  0  0  0  0  0  0  0  0  0  0  0
   -2.1273   -3.5574    0.0000 N   0  0  0  0  0  0  0  0  0  0  0  0
   -0.6547   -3.2723    0.0000 C   0  0  0  0  0  0  0  0  0  0  0  0
    0.3285   -4.4051    0.0000 O   0  0  0  0  0  0  0  0  0  0  0  0
   -0.1652   -1.8544    0.0000 C   0  0  0  0  0  0  0  0  0  0  0  0
    1.2696   -1.4170    0.0000 C   0  0  0  0  0  0  0  0  0  0  0  0
    2.5547   -2.1905    0.0000 C   0  0  0  0  0  0  0  0  0  0  0  0
    3.8672   -1.4643    0.0000 C   0  0  0  0  0  0  0  0  0  0  0  0
    3.8946    0.0354    0.0000 C   0  0  0  0  0  0  0  0  0  0  0  0
    2.6094    0.8090    0.0000 C   0  0  0  0  0  0  0  0  0  0  0  0
    1.2969    0.0828    0.0000 C   0  0  0  0  0  0  0  0  0  0  0  0
   -0.1210    0.5722    0.0000 N   0  0  0  0  0  0  0  0  0  0  0  0
   -0.5584    2.0070    0.0000 C   0  0  0  0  0  0  0  0  0  0  0  0
    0.4654    3.1033    0.0000 C   0  0  0  0  0  0  0  0  0  0  0  0
    0.0280    4.5381    0.0000 C   0  0  0  0  0  0  0  0  0  0  0  0
   -1.4333    4.8766    0.0000 C   0  0  0  0  0  0  0  0  0  0  0  0
   -2.4572    3.7804    0.0000 C   0  0  0  0  0  0  0  0  0  0  0  0
   -2.0197    2.3456    0.0000 C   0  0  0  0  0  0  0  0  0  0  0  0
   -1.0246   -0.6250    0.0000 C   0  0  0  0  0  0  0  0  0  0  0  0
   -2.5244   -0.5977    0.0000 O   0  0  0  0  0  0  0  0  0  0  0  0
   -3.2506    0.7148    0.0000 C   0  0  0  0  0  0  0  0  0  0  0  0
   -2.4770    2.0000    0.0000 C   0  0  0  0  0  0  0  0  0  0  0  0
   -3.2032    3.3124    0.0000 C   0  0  0  0  0  0  0  0  0  0  0  0
   -4.7030    3.3398    0.0000 C   0  0  0  0  0  0  0  0  0  0  0  0
   -5.4765    2.0546    0.0000 C   0  0  0  0  0  0  0  0  0  0  0  0
   -4.7503    0.7421    0.0000 C   0  0  0  0  0  0  0  0  0  0  0  0
   -5.5239   -0.5430    0.0000 C   0  0  0  0  0  0  0  0  0  0  0  0
   -2.4297    4.5976    0.0000 F   0  0  0  0  0  0  0  0  0  0  0  0
    5.2070    0.7616    0.0000 O   0  0  0  0  0  0  0  0  0  0  0  0
    6.4922   -0.0119    0.0000 C   0  0  0  0  0  0  0  0  0  0  0  0
    7.8047    0.7143    0.0000 C   0  0  0  0  0  0  0  0  0  0  0  0
    9.0898   -0.0593    0.0000 N   0  0  0  0  0  0  0  0  0  0  0  0
   10.4023    0.6669    0.0000 C   0  0  0  0  0  0  0  0  0  0  0  0
    9.0625   -1.5590    0.0000 C   0  0  0  0  0  0  0  0  0  0  0  0
  1  2  1  0
  1  6  1  0
  2  3  1  0
  3  4  1  0
  4  5  1  0
  5  6  1  0
  6  7  1  0
  7  8  2  0
  7  9  1  0
  9 10  1  0
  9 23  2  0
 10 11  2  0
 10 15  1  0
 11 12  1  0
 12 13  2  0
 13 14  1  0
 13 33  1  0
 14 15  2  0
 15 16  1  0
 16 17  1  0
 16 23  1  0
 17 18  2  0
 17 22  1  0
 18 19  1  0
 19 20  2  0
 20 21  1  0
 21 22  2  0
 23 24  1  0
 24 25  1  0
 25 26  2  0
 25 30  1  0
 26 27  1  0
 27 28  2  0
 27 32  1  0
 28 29  1  0
 29 30  2  0
 30 31  1  0
 33 34  1  0
 34 35  1  0
 35 36  1  0
 36 37  1  0
 36 38  1  0
M  END
>  <EXTREG>  (36) 
b1i5f

>  <ID>  (36) 
b1i5f

>  <RENIN_IC50>  (36) 
0.0290

>  <ORIGIN>  (36) 
BMCL2010

>  <RENIN_PIC50>  (36) 
7.5376

>  <TRAIN>  (36) 
train

>  <TRAIN_CLASS>  (36) 
0

$$$$
b1i5n
     RDKit          2D

 36 40  0  0  0  0  0  0  0  0999 V2000
   -1.9991   -4.9104    0.0000 C   0  0  0  0  0  0  0  0  0  0  0  0
   -3.4745   -5.1807    0.0000 C   0  0  0  0  0  0  0  0  0  0  0  0
   -4.4463   -4.0381    0.0000 N   0  0  0  0  0  0  0  0  0  0  0  0
   -3.9427   -2.6252    0.0000 C   0  0  0  0  0  0  0  0  0  0  0  0
   -2.4673   -2.3549    0.0000 C   0  0  0  0  0  0  0  0  0  0  0  0
   -1.4954   -3.4975    0.0000 N   0  0  0  0  0  0  0  0  0  0  0  0
   -0.0200   -3.2272    0.0000 C   0  0  0  0  0  0  0  0  0  0  0  0
    0.9518   -4.3698    0.0000 O   0  0  0  0  0  0  0  0  0  0  0  0
    0.4836   -1.8143    0.0000 C   0  0  0  0  0  0  0  0  0  0  0  0
    1.9227   -1.3912    0.0000 C   0  0  0  0  0  0  0  0  0  0  0  0
    3.2001   -2.1776    0.0000 C   0  0  0  0  0  0  0  0  0  0  0  0
    4.5198   -1.4646    0.0000 C   0  0  0  0  0  0  0  0  0  0  0  0
    4.5621    0.0348    0.0000 C   0  0  0  0  0  0  0  0  0  0  0  0
    3.2848    0.8212    0.0000 C   0  0  0  0  0  0  0  0  0  0  0  0
    1.9651    0.1082    0.0000 C   0  0  0  0  0  0  0  0  0  0  0  0
    0.5521    0.6118    0.0000 N   0  0  0  0  0  0  0  0  0  0  0  0
    0.1291    2.0509    0.0000 C   0  0  0  0  0  0  0  0  0  0  0  0
   -1.3287    2.4041    0.0000 C   0  0  0  0  0  0  0  0  0  0  0  0
   -1.7518    3.8432    0.0000 C   0  0  0  0  0  0  0  0  0  0  0  0
   -0.7170    4.9291    0.0000 C   0  0  0  0  0  0  0  0  0  0  0  0
    0.7408    4.5760    0.0000 C   0  0  0  0  0  0  0  0  0  0  0  0
    1.1639    3.1369    0.0000 C   0  0  0  0  0  0  0  0  0  0  0  0
   -0.3634   -0.5763    0.0000 C   0  0  0  0  0  0  0  0  0  0  0  0
   -1.8628   -0.5340    0.0000 C   0  0  0  0  0  0  0  0  0  0  0  0
   -2.5759    0.7857    0.0000 C   0  0  0  0  0  0  0  0  0  0  0  0
   -4.0753    0.8281    0.0000 C   0  0  0  0  0  0  0  0  0  0  0  0
   -4.7883    2.1478    0.0000 C   0  0  0  0  0  0  0  0  0  0  0  0
   -4.0019    3.4251    0.0000 C   0  0  0  0  0  0  0  0  0  0  0  0
   -2.5025    3.3828    0.0000 C   0  0  0  0  0  0  0  0  0  0  0  0
   -1.7895    2.0631    0.0000 C   0  0  0  0  0  0  0  0  0  0  0  0
   -6.2877    2.1901    0.0000 F   0  0  0  0  0  0  0  0  0  0  0  0
   -4.8616   -0.4493    0.0000 C   0  0  0  0  0  0  0  0  0  0  0  0
    5.8818    0.7479    0.0000 O   0  0  0  0  0  0  0  0  0  0  0  0
    7.1592   -0.0385    0.0000 C   0  0  0  0  0  0  0  0  0  0  0  0
    8.4789    0.6745    0.0000 C   0  0  0  0  0  0  0  0  0  0  0  0
    9.7562   -0.1119    0.0000 O   0  0  0  0  0  0  0  0  0  0  0  0
  1  2  1  0
  1  6  1  0
  2  3  1  0
  3  4  1  0
  4  5  1  0
  5  6  1  0
  6  7  1  0
  7  8  2  0
  7  9  1  0
  9 10  1  0
  9 23  2  0
 10 11  2  0
 10 15  1  0
 11 12  1  0
 12 13  2  0
 13 14  1  0
 13 33  1  0
 14 15  2  0
 15 16  1  0
 16 17  1  0
 16 23  1  0
 17 18  2  0
 17 22  1  0
 18 19  1  0
 19 20  2  0
 20 21  1  0
 21 22  2  0
 23 24  1  0
 24 25  1  0
 25 26  2  0
 25 30  1  0
 26 27  1  0
 26 32  1  0
 27 28  2  0
 27 31  1  0
 28 29  1  0
 29 30  2  0
 33 34  1  0
 34 35  1  0
 35 36  1  0
M  END
>  <EXTREG>  (37) 
b1i5n

>  <ID>  (37) 
b1i5n

>  <RENIN_IC50>  (37) 
0.0310

>  <ORIGIN>  (37) 
BMCL2010

>  <RENIN_PIC50>  (37) 
7.5086

>  <TRAIN>  (37) 
test

>  <TRAIN_CLASS>  (37) 
1

$$$$
b1i4e
     RDKit          2D

 32 36  0  0  0  0  0  0  0  0999 V2000
    3.4020   -3.6323    0.0000 C   0  0  0  0  0  0  0  0  0  0  0  0
    2.7765   -4.9957    0.0000 C   0  0  0  0  0  0  0  0  0  0  0  0
    1.2830   -5.1356    0.0000 N   0  0  0  0  0  0  0  0  0  0  0  0
    0.4151   -3.9122    0.0000 C   0  0  0  0  0  0  0  0  0  0  0  0
    1.0406   -2.5489    0.0000 C   0  0  0  0  0  0  0  0  0  0  0  0
    2.5341   -2.4089    0.0000 N   0  0  0  0  0  0  0  0  0  0  0  0
    3.1596   -1.0456    0.0000 C   0  0  0  0  0  0  0  0  0  0  0  0
    4.6531   -0.9056    0.0000 O   0  0  0  0  0  0  0  0  0  0  0  0
    2.2917    0.1778    0.0000 C   0  0  0  0  0  0  0  0  0  0  0  0
    2.7713    1.5991    0.0000 C   0  0  0  0  0  0  0  0  0  0  0  0
    4.1484    2.1937    0.0000 C   0  0  0  0  0  0  0  0  0  0  0  0
    4.3220    3.6836    0.0000 C   0  0  0  0  0  0  0  0  0  0  0  0
    3.1185    4.5789    0.0000 C   0  0  0  0  0  0  0  0  0  0  0  0
    1.7414    3.9843    0.0000 C   0  0  0  0  0  0  0  0  0  0  0  0
    1.5678    2.4944    0.0000 C   0  0  0  0  0  0  0  0  0  0  0  0
    0.3444    1.6265    0.0000 N   0  0  0  0  0  0  0  0  0  0  0  0
   -1.0769    2.1061    0.0000 C   0  0  0  0  0  0  0  0  0  0  0  0
   -2.2029    1.1150    0.0000 C   0  0  0  0  0  0  0  0  0  0  0  0
   -3.6241    1.5946    0.0000 C   0  0  0  0  0  0  0  0  0  0  0  0
   -3.9194    3.0653    0.0000 C   0  0  0  0  0  0  0  0  0  0  0  0
   -2.7934    4.0563    0.0000 C   0  0  0  0  0  0  0  0  0  0  0  0
   -1.3722    3.5767    0.0000 C   0  0  0  0  0  0  0  0  0  0  0  0
    0.7918    0.1947    0.0000 C   0  0  0  0  0  0  0  0  0  0  0  0
   -0.1036   -1.0088    0.0000 C   0  0  0  0  0  0  0  0  0  0  0  0
   -1.5935   -0.8351    0.0000 C   0  0  0  0  0  0  0  0  0  0  0  0
   -2.4888   -2.0386    0.0000 C   0  0  0  0  0  0  0  0  0  0  0  0
   -3.9787   -1.8650    0.0000 C   0  0  0  0  0  0  0  0  0  0  0  0
   -4.5733   -0.4879    0.0000 C   0  0  0  0  0  0  0  0  0  0  0  0
   -3.6780    0.7156    0.0000 C   0  0  0  0  0  0  0  0  0  0  0  0
   -2.1881    0.5420    0.0000 C   0  0  0  0  0  0  0  0  0  0  0  0
   -4.8740   -3.0685    0.0000 F   0  0  0  0  0  0  0  0  0  0  0  0
   -1.8942   -3.4157    0.0000 C   0  0  0  0  0  0  0  0  0  0  0  0
  1  2  1  0
  1  6  1  0
  2  3  1  0
  3  4  1  0
  4  5  1  0
  5  6  1  0
  6  7  1  0
  7  8  2  0
  7  9  1  0
  9 10  1  0
  9 23  2  0
 10 11  2  0
 10 15  1  0
 11 12  1  0
 12 13  2  0
 13 14  1  0
 14 15  2  0
 15 16  1  0
 16 17  1  0
 16 23  1  0
 17 18  1  0
 17 22  1  0
 18 19  1  0
 19 20  1  0
 20 21  1  0
 21 22  1  0
 23 24  1  0
 24 25  1  0
 25 26  2  0
 25 30  1  0
 26 27  1  0
 26 32  1  0
 27 28  2  0
 27 31  1  0
 28 29  1  0
 29 30  2  0
M  END
>  <EXTREG>  (38) 
b1i4e

>  <ID>  (38) 
b1i4e

>  <RENIN_IC50>  (38) 
0.0340

>  <ORIGIN>  (38) 
BMCL2010

>  <RENIN_PIC50>  (38) 
7.4685

>  <TRAIN>  (38) 
train

>  <TRAIN_CLASS>  (38) 
0

$$$$
b3a7b
     RDKit          2D

 35 39  0  0  0  0  0  0  0  0999 V2000
   -1.3828   -4.8548    0.0000 C   0  0  0  0  0  0  0  0  0  0  0  0
   -2.8705   -5.0467    0.0000 C   0  0  0  0  0  0  0  0  0  0  0  0
   -3.7804   -3.8542    0.0000 N   0  0  0  0  0  0  0  0  0  0  0  0
   -3.2027   -2.4699    0.0000 C   0  0  0  0  0  0  0  0  0  0  0  0
   -1.7150   -2.2781    0.0000 C   0  0  0  0  0  0  0  0  0  0  0  0
   -0.8051   -3.4706    0.0000 N   0  0  0  0  0  0  0  0  0  0  0  0
    0.6826   -3.2787    0.0000 C   0  0  0  0  0  0  0  0  0  0  0  0
    1.5926   -4.4712    0.0000 O   0  0  0  0  0  0  0  0  0  0  0  0
    1.2603   -1.8944    0.0000 C   0  0  0  0  0  0  0  0  0  0  0  0
    2.7198   -1.5481    0.0000 C   0  0  0  0  0  0  0  0  0  0  0  0
    3.9537   -2.4010    0.0000 C   0  0  0  0  0  0  0  0  0  0  0  0
    5.3093   -1.7589    0.0000 N   0  0  0  0  0  0  0  0  0  0  0  0
    5.4310   -0.2638    0.0000 C   0  0  0  0  0  0  0  0  0  0  0  0
    4.1971    0.5891    0.0000 C   0  0  0  0  0  0  0  0  0  0  0  0
    2.8415   -0.0531    0.0000 C   0  0  0  0  0  0  0  0  0  0  0  0
    1.4572    0.5246    0.0000 N   0  0  0  0  0  0  0  0  0  0  0  0
    1.1109    1.9841    0.0000 C   0  0  0  0  0  0  0  0  0  0  0  0
   -0.3262    2.4140    0.0000 C   0  0  0  0  0  0  0  0  0  0  0  0
   -0.6725    3.8734    0.0000 C   0  0  0  0  0  0  0  0  0  0  0  0
    0.4183    4.9031    0.0000 C   0  0  0  0  0  0  0  0  0  0  0  0
    1.8554    4.4732    0.0000 C   0  0  0  0  0  0  0  0  0  0  0  0
    2.2017    3.0137    0.0000 C   0  0  0  0  0  0  0  0  0  0  0  0
    0.4800   -0.6134    0.0000 C   0  0  0  0  0  0  0  0  0  0  0  0
   -1.0151   -0.4917    0.0000 O   0  0  0  0  0  0  0  0  0  0  0  0
   -1.6572    0.8639    0.0000 C   0  0  0  0  0  0  0  0  0  0  0  0
   -0.8043    2.0978    0.0000 C   0  0  0  0  0  0  0  0  0  0  0  0
   -1.4465    3.4534    0.0000 C   0  0  0  0  0  0  0  0  0  0  0  0
   -2.9416    3.5751    0.0000 C   0  0  0  0  0  0  0  0  0  0  0  0
   -3.7944    2.3411    0.0000 C   0  0  0  0  0  0  0  0  0  0  0  0
   -3.1523    0.9855    0.0000 C   0  0  0  0  0  0  0  0  0  0  0  0
   -4.0052   -0.2484    0.0000 C   0  0  0  0  0  0  0  0  0  0  0  0
   -5.2895    2.4628    0.0000 F   0  0  0  0  0  0  0  0  0  0  0  0
    0.6757    2.3415    0.0000 C   0  0  0  0  0  0  0  0  0  0  0  0
    6.7866    0.3783    0.0000 O   0  0  0  0  0  0  0  0  0  0  0  0
   -4.1127   -1.2775    0.0000 C   0  0  0  0  0  0  0  0  0  0  0  0
  1  2  1  0
  1  6  1  0
  2  3  1  0
  3  4  1  0
  4  5  1  0
  4 35  1  0
  5  6  1  0
  6  7  1  0
  7  8  2  0
  7  9  1  0
  9 10  1  0
  9 23  2  0
 10 11  2  0
 10 15  1  0
 11 12  1  0
 12 13  1  0
 13 14  1  0
 13 34  2  0
 14 15  2  0
 15 16  1  0
 16 17  1  0
 16 23  1  0
 17 18  1  0
 17 22  1  0
 18 19  1  0
 19 20  1  0
 20 21  1  0
 21 22  1  0
 23 24  1  0
 24 25  1  0
 25 26  2  0
 25 30  1  0
 26 27  1  0
 26 33  1  0
 27 28  2  0
 28 29  1  0
 29 30  2  0
 29 32  1  0
 30 31  1  0
M  END
>  <EXTREG>  (39) 
b3a7b

>  <ID>  (39) 
b3a7b

>  <RENIN_IC50>  (39) 
0.0370

>  <ORIGIN>  (39) 
BMCL2011B

>  <RENIN_PIC50>  (39) 
7.4318

>  <TRAIN>  (39) 
test

>  <TRAIN_CLASS>  (39) 
1

$$$$
b1i5o
     RDKit          2D

 36 40  0  0  0  0  0  0  0  0999 V2000
   -2.2034   -4.8208    0.0000 C   0  0  0  0  0  0  0  0  0  0  0  0
   -3.6954   -4.9751    0.0000 C   0  0  0  0  0  0  0  0  0  0  0  0
   -4.5751   -3.7601    0.0000 N   0  0  0  0  0  0  0  0  0  0  0  0
   -3.9628   -2.3908    0.0000 C   0  0  0  0  0  0  0  0  0  0  0  0
   -2.4707   -2.2365    0.0000 C   0  0  0  0  0  0  0  0  0  0  0  0
   -1.5910   -3.4514    0.0000 N   0  0  0  0  0  0  0  0  0  0  0  0
   -0.0990   -3.2971    0.0000 C   0  0  0  0  0  0  0  0  0  0  0  0
    0.7807   -4.5120    0.0000 O   0  0  0  0  0  0  0  0  0  0  0  0
    0.5133   -1.9278    0.0000 C   0  0  0  0  0  0  0  0  0  0  0  0
    1.9811   -1.6183    0.0000 C   0  0  0  0  0  0  0  0  0  0  0  0
    3.1931   -2.5020    0.0000 C   0  0  0  0  0  0  0  0  0  0  0  0
    4.5645   -1.8941    0.0000 C   0  0  0  0  0  0  0  0  0  0  0  0
    4.7237   -0.4026    0.0000 C   0  0  0  0  0  0  0  0  0  0  0  0
    3.5116    0.4811    0.0000 C   0  0  0  0  0  0  0  0  0  0  0  0
    2.1403   -0.1268    0.0000 C   0  0  0  0  0  0  0  0  0  0  0  0
    0.7710    0.4856    0.0000 N   0  0  0  0  0  0  0  0  0  0  0  0
    0.4615    1.9533    0.0000 C   0  0  0  0  0  0  0  0  0  0  0  0
   -0.9643    2.4192    0.0000 C   0  0  0  0  0  0  0  0  0  0  0  0
   -1.2738    3.8869    0.0000 C   0  0  0  0  0  0  0  0  0  0  0  0
   -0.1574    4.8888    0.0000 C   0  0  0  0  0  0  0  0  0  0  0  0
    1.2684    4.4229    0.0000 C   0  0  0  0  0  0  0  0  0  0  0  0
    1.5779    2.9552    0.0000 C   0  0  0  0  0  0  0  0  0  0  0  0
   -0.2345   -0.6275    0.0000 C   0  0  0  0  0  0  0  0  0  0  0  0
   -1.7261   -0.4683    0.0000 C   0  0  0  0  0  0  0  0  0  0  0  0
   -2.3339    0.9030    0.0000 C   0  0  0  0  0  0  0  0  0  0  0  0
   -3.8255    1.0623    0.0000 C   0  0  0  0  0  0  0  0  0  0  0  0
   -4.4333    2.4336    0.0000 C   0  0  0  0  0  0  0  0  0  0  0  0
   -3.5497    3.6457    0.0000 C   0  0  0  0  0  0  0  0  0  0  0  0
   -2.0581    3.4864    0.0000 C   0  0  0  0  0  0  0  0  0  0  0  0
   -1.4503    2.1151    0.0000 C   0  0  0  0  0  0  0  0  0  0  0  0
   -5.9248    2.5928    0.0000 F   0  0  0  0  0  0  0  0  0  0  0  0
   -4.7091   -0.1498    0.0000 C   0  0  0  0  0  0  0  0  0  0  0  0
    6.0950    0.2053    0.0000 S   0  0  0  0  0  0  0  0  0  0  0  0
    5.4871    1.5766    0.0000 O   0  0  0  0  0  0  0  0  0  0  0  0
    7.4663    0.8132    0.0000 C   0  0  0  0  0  0  0  0  0  0  0  0
    6.7029   -1.1660    0.0000 O   0  0  0  0  0  0  0  0  0  0  0  0
  1  2  1  0
  1  6  1  0
  2  3  1  0
  3  4  1  0
  4  5  1  0
  5  6  1  0
  6  7  1  0
  7  8  2  0
  7  9  1  0
  9 10  1  0
  9 23  2  0
 10 11  2  0
 10 15  1  0
 11 12  1  0
 12 13  2  0
 13 14  1  0
 13 33  1  0
 14 15  2  0
 15 16  1  0
 16 17  1  0
 16 23  1  0
 17 18  2  0
 17 22  1  0
 18 19  1  0
 19 20  2  0
 20 21  1  0
 21 22  2  0
 23 24  1  0
 24 25  1  0
 25 26  2  0
 25 30  1  0
 26 27  1  0
 26 32  1  0
 27 28  2  0
 27 31  1  0
 28 29  1  0
 29 30  2  0
 33 34  2  0
 33 35  1  0
 33 36  2  0
M  END
>  <EXTREG>  (40) 
b1i5o

>  <ID>  (40) 
b1i5o

>  <RENIN_IC50>  (40) 
0.0440

>  <ORIGIN>  (40) 
BMCL2010

>  <RENIN_PIC50>  (40) 
7.3565

>  <TRAIN>  (40) 
train

>  <TRAIN_CLASS>  (40) 
0

$$$$
b2a3ir
     RDKit          2D

 32 36  0  0  0  0  0  0  0  0999 V2000
    4.9006   -1.3498    0.0000 C   0  0  0  0  0  0  0  0  0  0  0  0
    5.1152   -2.8343    0.0000 C   0  0  0  0  0  0  0  0  0  0  0  0
    3.9369   -3.7625    0.0000 N   0  0  0  0  0  0  0  0  0  0  0  0
    2.5439   -3.2061    0.0000 C   0  0  0  0  0  0  0  0  0  0  0  0
    2.3292   -1.7215    0.0000 C   0  0  0  0  0  0  0  0  0  0  0  0
    3.5076   -0.7934    0.0000 N   0  0  0  0  0  0  0  0  0  0  0  0
    3.2929    0.6912    0.0000 C   0  0  0  0  0  0  0  0  0  0  0  0
    4.4713    1.6194    0.0000 O   0  0  0  0  0  0  0  0  0  0  0  0
    1.8999    1.2476    0.0000 C   0  0  0  0  0  0  0  0  0  0  0  0
    1.5313    2.7016    0.0000 C   0  0  0  0  0  0  0  0  0  0  0  0
    2.3651    3.9484    0.0000 N   0  0  0  0  0  0  0  0  0  0  0  0
    1.7022    5.2940    0.0000 C   0  0  0  0  0  0  0  0  0  0  0  0
    0.2055    5.3927    0.0000 C   0  0  0  0  0  0  0  0  0  0  0  0
   -0.6284    4.1458    0.0000 C   0  0  0  0  0  0  0  0  0  0  0  0
    0.0345    2.8003    0.0000 C   0  0  0  0  0  0  0  0  0  0  0  0
   -0.5218    1.4073    0.0000 N   0  0  0  0  0  0  0  0  0  0  0  0
   -1.9758    1.0386    0.0000 C   0  0  0  0  0  0  0  0  0  0  0  0
   -3.0221    2.1135    0.0000 C   0  0  0  0  0  0  0  0  0  0  0  0
   -4.4761    1.7448    0.0000 C   0  0  0  0  0  0  0  0  0  0  0  0
   -4.8838    0.3013    0.0000 C   0  0  0  0  0  0  0  0  0  0  0  0
   -3.8376   -0.7735    0.0000 C   0  0  0  0  0  0  0  0  0  0  0  0
   -2.3836   -0.4049    0.0000 C   0  0  0  0  0  0  0  0  0  0  0  0
    0.6310    0.4477    0.0000 C   0  0  0  0  0  0  0  0  0  0  0  0
    0.5323   -1.0491    0.0000 O   0  0  0  0  0  0  0  0  0  0  0  0
   -0.8132   -1.7120    0.0000 C   0  0  0  0  0  0  0  0  0  0  0  0
   -2.0601   -0.8781    0.0000 C   0  0  0  0  0  0  0  0  0  0  0  0
   -3.4057   -1.5410    0.0000 C   0  0  0  0  0  0  0  0  0  0  0  0
   -3.5044   -3.0378    0.0000 C   0  0  0  0  0  0  0  0  0  0  0  0
   -2.2575   -3.8716    0.0000 C   0  0  0  0  0  0  0  0  0  0  0  0
   -0.9119   -3.2087    0.0000 C   0  0  0  0  0  0  0  0  0  0  0  0
    0.3349   -4.0426    0.0000 Cl  0  0  0  0  0  0  0  0  0  0  0  0
   -4.6526   -0.7072    0.0000 F   0  0  0  0  0  0  0  0  0  0  0  0
  1  2  1  0
  1  6  1  0
  2  3  1  0
  3  4  1  0
  4  5  1  0
  5  6  1  0
  6  7  1  0
  7  8  2  0
  7  9  1  0
  9 10  1  0
  9 23  2  0
 10 11  2  0
 10 15  1  0
 11 12  1  0
 12 13  2  0
 13 14  1  0
 14 15  2  0
 15 16  1  0
 16 17  1  0
 16 23  1  0
 17 18  2  0
 17 22  1  0
 18 19  1  0
 19 20  2  0
 20 21  1  0
 21 22  2  0
 23 24  1  0
 24 25  1  0
 25 26  2  0
 25 30  1  0
 26 27  1  0
 27 28  2  0
 27 32  1  0
 28 29  1  0
 29 30  2  0
 30 31  1  0
M  END
>  <EXTREG>  (41) 
b2a3ir

>  <ID>  (41) 
b2a3ir

>  <RENIN_IC50>  (41) 
0.0550

>  <ORIGIN>  (41) 
BMCL2011A

>  <RENIN_PIC50>  (41) 
7.2596

>  <TRAIN>  (41) 
train

>  <TRAIN_CLASS>  (41) 
0

$$$$
b2a3g
     RDKit          2D

 32 36  0  0  0  0  0  0  0  0999 V2000
    3.4020   -3.6323    0.0000 C   0  0  0  0  0  0  0  0  0  0  0  0
    2.7765   -4.9957    0.0000 C   0  0  0  0  0  0  0  0  0  0  0  0
    1.2830   -5.1356    0.0000 N   0  0  0  0  0  0  0  0  0  0  0  0
    0.4151   -3.9122    0.0000 C   0  0  0  0  0  0  0  0  0  0  0  0
    1.0406   -2.5489    0.0000 C   0  0  0  0  0  0  0  0  0  0  0  0
    2.5341   -2.4089    0.0000 N   0  0  0  0  0  0  0  0  0  0  0  0
    3.1596   -1.0456    0.0000 C   0  0  0  0  0  0  0  0  0  0  0  0
    4.6531   -0.9056    0.0000 O   0  0  0  0  0  0  0  0  0  0  0  0
    2.2917    0.1778    0.0000 C   0  0  0  0  0  0  0  0  0  0  0  0
    2.7713    1.5991    0.0000 C   0  0  0  0  0  0  0  0  0  0  0  0
    4.1484    2.1937    0.0000 N   0  0  0  0  0  0  0  0  0  0  0  0
    4.3220    3.6836    0.0000 C   0  0  0  0  0  0  0  0  0  0  0  0
    3.1185    4.5789    0.0000 C   0  0  0  0  0  0  0  0  0  0  0  0
    1.7414    3.9843    0.0000 C   0  0  0  0  0  0  0  0  0  0  0  0
    1.5678    2.4944    0.0000 C   0  0  0  0  0  0  0  0  0  0  0  0
    0.3444    1.6265    0.0000 N   0  0  0  0  0  0  0  0  0  0  0  0
   -1.0769    2.1061    0.0000 C   0  0  0  0  0  0  0  0  0  0  0  0
   -1.3722    3.5767    0.0000 C   0  0  0  0  0  0  0  0  0  0  0  0
   -2.7934    4.0563    0.0000 C   0  0  0  0  0  0  0  0  0  0  0  0
   -3.9194    3.0653    0.0000 C   0  0  0  0  0  0  0  0  0  0  0  0
   -3.6241    1.5946    0.0000 C   0  0  0  0  0  0  0  0  0  0  0  0
   -2.2029    1.1150    0.0000 C   0  0  0  0  0  0  0  0  0  0  0  0
    0.7918    0.1947    0.0000 C   0  0  0  0  0  0  0  0  0  0  0  0
   -0.1036   -1.0088    0.0000 O   0  0  0  0  0  0  0  0  0  0  0  0
   -1.5935   -0.8351    0.0000 C   0  0  0  0  0  0  0  0  0  0  0  0
   -2.1881    0.5420    0.0000 C   0  0  0  0  0  0  0  0  0  0  0  0
   -3.6780    0.7156    0.0000 C   0  0  0  0  0  0  0  0  0  0  0  0
   -4.5733   -0.4879    0.0000 C   0  0  0  0  0  0  0  0  0  0  0  0
   -3.9787   -1.8650    0.0000 C   0  0  0  0  0  0  0  0  0  0  0  0
   -2.4888   -2.0386    0.0000 C   0  0  0  0  0  0  0  0  0  0  0  0
   -1.8942   -3.4157    0.0000 C   0  0  0  0  0  0  0  0  0  0  0  0
   -4.8740   -3.0685    0.0000 F   0  0  0  0  0  0  0  0  0  0  0  0
  1  2  1  0
  1  6  1  0
  2  3  1  0
  3  4  1  0
  4  5  1  0
  5  6  1  0
  6  7  1  0
  7  8  2  0
  7  9  1  0
  9 10  1  0
  9 23  2  0
 10 11  2  0
 10 15  1  0
 11 12  1  0
 12 13  2  0
 13 14  1  0
 14 15  2  0
 15 16  1  0
 16 17  1  0
 16 23  1  0
 17 18  2  0
 17 22  1  0
 18 19  1  0
 19 20  2  0
 20 21  1  0
 21 22  2  0
 23 24  1  0
 24 25  1  0
 25 26  2  0
 25 30  1  0
 26 27  1  0
 27 28  2  0
 28 29  1  0
 29 30  2  0
 29 32  1  0
 30 31  1  0
M  END
>  <EXTREG>  (42) 
b2a3g

>  <ID>  (42) 
b2a3g

>  <RENIN_IC50>  (42) 
0.0570

>  <ORIGIN>  (42) 
BMCL2011A

>  <RENIN_PIC50>  (42) 
7.2441

>  <TRAIN>  (42) 
train

>  <TRAIN_CLASS>  (42) 
0

$$$$
b2a4l
     RDKit          2D

 37 41  0  0  0  0  0  0  0  0999 V2000
   -2.2910   -4.0075    0.0000 C   0  0  0  0  0  0  0  0  0  0  0  0
   -3.7437   -3.6337    0.0000 C   0  0  0  0  0  0  0  0  0  0  0  0
   -4.1464   -2.1887    0.0000 N   0  0  0  0  0  0  0  0  0  0  0  0
   -3.0963   -1.1176    0.0000 C   0  0  0  0  0  0  0  0  0  0  0  0
   -1.6437   -1.4913    0.0000 C   0  0  0  0  0  0  0  0  0  0  0  0
   -1.2410   -2.9363    0.0000 N   0  0  0  0  0  0  0  0  0  0  0  0
    0.2117   -3.3100    0.0000 C   0  0  0  0  0  0  0  0  0  0  0  0
    0.6143   -4.7550    0.0000 O   0  0  0  0  0  0  0  0  0  0  0  0
    1.2617   -2.2389    0.0000 C   0  0  0  0  0  0  0  0  0  0  0  0
    2.7455   -2.4587    0.0000 C   0  0  0  0  0  0  0  0  0  0  0  0
    3.5750   -3.7085    0.0000 N   0  0  0  0  0  0  0  0  0  0  0  0
    5.0721   -3.6151    0.0000 C   0  0  0  0  0  0  0  0  0  0  0  0
    5.7397   -2.2719    0.0000 C   0  0  0  0  0  0  0  0  0  0  0  0
    4.9102   -1.0221    0.0000 C   0  0  0  0  0  0  0  0  0  0  0  0
    3.4131   -1.1155    0.0000 C   0  0  0  0  0  0  0  0  0  0  0  0
    2.3420   -0.0655    0.0000 N   0  0  0  0  0  0  0  0  0  0  0  0
    2.5618    1.4183    0.0000 C   0  0  0  0  0  0  0  0  0  0  0  0
    1.3868    2.3506    0.0000 C   0  0  0  0  0  0  0  0  0  0  0  0
    1.6066    3.8344    0.0000 C   0  0  0  0  0  0  0  0  0  0  0  0
    3.0016    4.3859    0.0000 C   0  0  0  0  0  0  0  0  0  0  0  0
    4.1767    3.4536    0.0000 C   0  0  0  0  0  0  0  0  0  0  0  0
    3.9568    1.9698    0.0000 C   0  0  0  0  0  0  0  0  0  0  0  0
    1.0123   -0.7597    0.0000 C   0  0  0  0  0  0  0  0  0  0  0  0
   -0.3309   -0.0921    0.0000 O   0  0  0  0  0  0  0  0  0  0  0  0
   -0.4244    1.4050    0.0000 C   0  0  0  0  0  0  0  0  0  0  0  0
   -1.7676    2.0726    0.0000 C   0  0  0  0  0  0  0  0  0  0  0  0
   -1.8610    3.5697    0.0000 C   0  0  0  0  0  0  0  0  0  0  0  0
   -0.6112    4.3991    0.0000 C   0  0  0  0  0  0  0  0  0  0  0  0
    0.7320    3.7315    0.0000 C   0  0  0  0  0  0  0  0  0  0  0  0
    0.8255    2.2344    0.0000 C   0  0  0  0  0  0  0  0  0  0  0  0
    2.2903    1.9117    0.0000 C   0  0  0  0  0  0  0  0  0  0  0  0
   -3.0174    1.2431    0.0000 C   0  0  0  0  0  0  0  0  0  0  0  0
   -3.4990    0.3274    0.0000 C   0  0  0  0  0  0  0  0  0  0  0  0
   -4.9517    0.7011    0.0000 C   0  0  0  0  0  0  0  0  0  0  0  0
   -6.0017   -0.3700    0.0000 O   0  0  0  0  0  0  0  0  0  0  0  0
   -7.4544    0.0037    0.0000 C   0  0  0  0  0  0  0  0  0  0  0  0
   -5.3543    2.1461    0.0000 O   0  0  0  0  0  0  0  0  0  0  0  0
  1  2  1  0
  1  6  1  0
  2  3  1  0
  3  4  1  0
  4  5  1  0
  4 33  1  0
  5  6  1  0
  6  7  1  0
  7  8  2  0
  7  9  1  0
  9 10  1  0
  9 23  2  0
 10 11  2  0
 10 15  1  0
 11 12  1  0
 12 13  2  0
 13 14  1  0
 14 15  2  0
 15 16  1  0
 16 17  1  0
 16 23  1  0
 17 18  2  0
 17 22  1  0
 18 19  1  0
 19 20  2  0
 20 21  1  0
 21 22  2  0
 23 24  1  0
 24 25  1  0
 25 26  2  0
 25 30  1  0
 26 27  1  0
 26 32  1  0
 27 28  2  0
 28 29  1  0
 29 30  2  0
 30 31  1  0
 33 34  1  0
 34 35  1  0
 34 37  2  0
 35 36  1  0
M  END
>  <EXTREG>  (43) 
b2a4l

>  <ID>  (43) 
b2a4l

>  <RENIN_IC50>  (43) 
0.0570

>  <ORIGIN>  (43) 
BMCL2011A

>  <RENIN_PIC50>  (43) 
7.2441

>  <TRAIN>  (43) 
train

>  <TRAIN_CLASS>  (43) 
0

$$$$
b2a4c
     RDKit          2D

 33 37  0  0  0  0  0  0  0  0999 V2000
   -4.9165   -0.5977    0.0000 C   0  0  0  0  0  0  0  0  0  0  0  0
   -5.6653    0.7020    0.0000 C   0  0  0  0  0  0  0  0  0  0  0  0
   -4.9141    2.0003    0.0000 N   0  0  0  0  0  0  0  0  0  0  0  0
   -3.4141    1.9989    0.0000 C   0  0  0  0  0  0  0  0  0  0  0  0
   -2.6653    0.6992    0.0000 C   0  0  0  0  0  0  0  0  0  0  0  0
   -3.4165   -0.5992    0.0000 N   0  0  0  0  0  0  0  0  0  0  0  0
   -2.6678   -1.8989    0.0000 C   0  0  0  0  0  0  0  0  0  0  0  0
   -3.4190   -3.1972    0.0000 O   0  0  0  0  0  0  0  0  0  0  0  0
   -1.1678   -1.9003    0.0000 C   0  0  0  0  0  0  0  0  0  0  0  0
   -0.2872   -3.1147    0.0000 C   0  0  0  0  0  0  0  0  0  0  0  0
   -0.6005   -4.5816    0.0000 N   0  0  0  0  0  0  0  0  0  0  0  0
    0.5133   -5.5864    0.0000 C   0  0  0  0  0  0  0  0  0  0  0  0
    1.9403   -5.1242    0.0000 C   0  0  0  0  0  0  0  0  0  0  0  0
    2.2535   -3.6573    0.0000 C   0  0  0  0  0  0  0  0  0  0  0  0
    1.1398   -2.6525    0.0000 C   0  0  0  0  0  0  0  0  0  0  0  0
    1.1412   -1.1525    0.0000 N   0  0  0  0  0  0  0  0  0  0  0  0
    2.3556   -0.2720    0.0000 C   0  0  0  0  0  0  0  0  0  0  0  0
    2.2002    1.2199    0.0000 C   0  0  0  0  0  0  0  0  0  0  0  0
    3.4146    2.1005    0.0000 C   0  0  0  0  0  0  0  0  0  0  0  0
    4.7843    1.4891    0.0000 C   0  0  0  0  0  0  0  0  0  0  0  0
    4.9397   -0.0029    0.0000 C   0  0  0  0  0  0  0  0  0  0  0  0
    3.7253   -0.8834    0.0000 C   0  0  0  0  0  0  0  0  0  0  0  0
   -0.2849   -0.6876    0.0000 C   0  0  0  0  0  0  0  0  0  0  0  0
   -0.7471    0.7394    0.0000 O   0  0  0  0  0  0  0  0  0  0  0  0
    0.2576    1.8531    0.0000 C   0  0  0  0  0  0  0  0  0  0  0  0
   -0.2045    3.2802    0.0000 C   0  0  0  0  0  0  0  0  0  0  0  0
    0.8002    4.3939    0.0000 C   0  0  0  0  0  0  0  0  0  0  0  0
    2.2672    4.0807    0.0000 C   0  0  0  0  0  0  0  0  0  0  0  0
    2.7293    2.6536    0.0000 C   0  0  0  0  0  0  0  0  0  0  0  0
    1.7246    1.5399    0.0000 C   0  0  0  0  0  0  0  0  0  0  0  0
    2.5183    0.2671    0.0000 C   0  0  0  0  0  0  0  0  0  0  0  0
   -1.6714    3.5934    0.0000 C   0  0  0  0  0  0  0  0  0  0  0  0
   -2.6628    3.2972    0.0000 C   0  0  0  0  0  0  0  0  0  0  0  0
  1  2  1  0
  1  6  1  0
  2  3  1  0
  3  4  1  0
  4  5  1  0
  4 33  1  0
  5  6  1  0
  6  7  1  0
  7  8  2  0
  7  9  1  0
  9 10  1  0
  9 23  2  0
 10 11  2  0
 10 15  1  0
 11 12  1  0
 12 13  2  0
 13 14  1  0
 14 15  2  0
 15 16  1  0
 16 17  1  0
 16 23  1  0
 17 18  2  0
 17 22  1  0
 18 19  1  0
 19 20  2  0
 20 21  1  0
 21 22  2  0
 23 24  1  0
 24 25  1  0
 25 26  2  0
 25 30  1  0
 26 27  1  0
 26 32  1  0
 27 28  2  0
 28 29  1  0
 29 30  2  0
 30 31  1  0
M  END
>  <EXTREG>  (44) 
b2a4c

>  <ID>  (44) 
b2a4c

>  <RENIN_IC50>  (44) 
0.0600

>  <ORIGIN>  (44) 
BMCL2011A

>  <RENIN_PIC50>  (44) 
7.2218

>  <TRAIN>  (44) 
train

>  <TRAIN_CLASS>  (44) 
0

$$$$
b2a3n
     RDKit          2D

 32 36  0  0  0  0  0  0  0  0999 V2000
   -4.9661    0.7617    0.0000 C   0  0  0  0  0  0  0  0  0  0  0  0
   -5.3688    2.2066    0.0000 C   0  0  0  0  0  0  0  0  0  0  0  0
   -4.3188    3.2779    0.0000 N   0  0  0  0  0  0  0  0  0  0  0  0
   -2.8661    2.9042    0.0000 C   0  0  0  0  0  0  0  0  0  0  0  0
   -2.4634    1.4593    0.0000 C   0  0  0  0  0  0  0  0  0  0  0  0
   -3.5134    0.3880    0.0000 N   0  0  0  0  0  0  0  0  0  0  0  0
   -3.1106   -1.0569    0.0000 C   0  0  0  0  0  0  0  0  0  0  0  0
   -4.1606   -2.1281    0.0000 O   0  0  0  0  0  0  0  0  0  0  0  0
   -1.6579   -1.4306    0.0000 C   0  0  0  0  0  0  0  0  0  0  0  0
   -1.1064   -2.8255    0.0000 C   0  0  0  0  0  0  0  0  0  0  0  0
   -1.7739   -4.1687    0.0000 N   0  0  0  0  0  0  0  0  0  0  0  0
   -0.9444   -5.4185    0.0000 C   0  0  0  0  0  0  0  0  0  0  0  0
    0.5527   -5.3250    0.0000 C   0  0  0  0  0  0  0  0  0  0  0  0
    1.2203   -3.9817    0.0000 C   0  0  0  0  0  0  0  0  0  0  0  0
    0.3907   -2.7319    0.0000 C   0  0  0  0  0  0  0  0  0  0  0  0
    0.7644   -1.2792    0.0000 N   0  0  0  0  0  0  0  0  0  0  0  0
    2.1593   -0.7277    0.0000 C   0  0  0  0  0  0  0  0  0  0  0  0
    2.3791    0.7561    0.0000 C   0  0  0  0  0  0  0  0  0  0  0  0
    3.7740    1.3077    0.0000 C   0  0  0  0  0  0  0  0  0  0  0  0
    4.9491    0.3755    0.0000 C   0  0  0  0  0  0  0  0  0  0  0  0
    4.7294   -1.1083    0.0000 C   0  0  0  0  0  0  0  0  0  0  0  0
    3.3344   -1.6599    0.0000 C   0  0  0  0  0  0  0  0  0  0  0  0
   -0.5017   -0.4749    0.0000 C   0  0  0  0  0  0  0  0  0  0  0  0
   -0.5953    1.0221    0.0000 S   0  0  0  0  0  0  0  0  0  0  0  0
    0.6545    1.8517    0.0000 C   0  0  0  0  0  0  0  0  0  0  0  0
    0.5610    3.3488    0.0000 C   0  0  0  0  0  0  0  0  0  0  0  0
    1.8107    4.1783    0.0000 C   0  0  0  0  0  0  0  0  0  0  0  0
    3.1540    3.5107    0.0000 C   0  0  0  0  0  0  0  0  0  0  0  0
    3.2475    2.0137    0.0000 C   0  0  0  0  0  0  0  0  0  0  0  0
    1.9978    1.1841    0.0000 C   0  0  0  0  0  0  0  0  0  0  0  0
    2.4508   -0.2458    0.0000 C   0  0  0  0  0  0  0  0  0  0  0  0
   -0.7823    4.0163    0.0000 C   0  0  0  0  0  0  0  0  0  0  0  0
  1  2  1  0
  1  6  1  0
  2  3  1  0
  3  4  1  0
  4  5  1  0
  5  6  1  0
  6  7  1  0
  7  8  2  0
  7  9  1  0
  9 10  1  0
  9 23  2  0
 10 11  2  0
 10 15  1  0
 11 12  1  0
 12 13  2  0
 13 14  1  0
 14 15  2  0
 15 16  1  0
 16 17  1  0
 16 23  1  0
 17 18  2  0
 17 22  1  0
 18 19  1  0
 19 20  2  0
 20 21  1  0
 21 22  2  0
 23 24  1  0
 24 25  1  0
 25 26  2  0
 25 30  1  0
 26 27  1  0
 26 32  1  0
 27 28  2  0
 28 29  1  0
 29 30  2  0
 30 31  1  0
M  END
>  <EXTREG>  (45) 
b2a3n

>  <ID>  (45) 
b2a3n

>  <RENIN_IC50>  (45) 
0.0610

>  <ORIGIN>  (45) 
BMCL2011A

>  <RENIN_PIC50>  (45) 
7.2147

>  <TRAIN>  (45) 
train

>  <TRAIN_CLASS>  (45) 
0

$$$$
b1i2h
     RDKit          2D

 31 35  0  0  0  0  0  0  0  0999 V2000
    4.0534   -2.9560    0.0000 C   0  0  0  0  0  0  0  0  0  0  0  0
    3.7286   -4.4204    0.0000 C   0  0  0  0  0  0  0  0  0  0  0  0
    2.2980   -4.8714    0.0000 N   0  0  0  0  0  0  0  0  0  0  0  0
    1.1922   -3.8580    0.0000 C   0  0  0  0  0  0  0  0  0  0  0  0
    1.5169   -2.3935    0.0000 C   0  0  0  0  0  0  0  0  0  0  0  0
    2.9475   -1.9426    0.0000 N   0  0  0  0  0  0  0  0  0  0  0  0
    3.2723   -0.4781    0.0000 C   0  0  0  0  0  0  0  0  0  0  0  0
    4.7029   -0.0272    0.0000 O   0  0  0  0  0  0  0  0  0  0  0  0
    2.1664    0.5353    0.0000 C   0  0  0  0  0  0  0  0  0  0  0  0
    2.3363    2.0257    0.0000 C   0  0  0  0  0  0  0  0  0  0  0  0
    3.5576    2.8966    0.0000 C   0  0  0  0  0  0  0  0  0  0  0  0
    3.4139    4.3897    0.0000 C   0  0  0  0  0  0  0  0  0  0  0  0
    2.0490    5.0119    0.0000 C   0  0  0  0  0  0  0  0  0  0  0  0
    0.8278    4.1409    0.0000 C   0  0  0  0  0  0  0  0  0  0  0  0
    0.9714    2.6478    0.0000 C   0  0  0  0  0  0  0  0  0  0  0  0
   -0.0420    1.5419    0.0000 N   0  0  0  0  0  0  0  0  0  0  0  0
   -1.5324    1.7118    0.0000 C   0  0  0  0  0  0  0  0  0  0  0  0
   -2.4247    0.5061    0.0000 C   0  0  0  0  0  0  0  0  0  0  0  0
   -3.9150    0.6760    0.0000 C   0  0  0  0  0  0  0  0  0  0  0  0
   -4.5131    2.0517    0.0000 C   0  0  0  0  0  0  0  0  0  0  0  0
   -3.6207    3.2574    0.0000 C   0  0  0  0  0  0  0  0  0  0  0  0
   -2.1304    3.0875    0.0000 C   0  0  0  0  0  0  0  0  0  0  0  0
    0.6965    0.2364    0.0000 C   0  0  0  0  0  0  0  0  0  0  0  0
    0.0744   -1.1285    0.0000 O   0  0  0  0  0  0  0  0  0  0  0  0
   -1.4187   -1.2722    0.0000 C   0  0  0  0  0  0  0  0  0  0  0  0
   -2.0408   -2.6371    0.0000 C   0  0  0  0  0  0  0  0  0  0  0  0
   -3.5339   -2.7808    0.0000 C   0  0  0  0  0  0  0  0  0  0  0  0
   -4.4049   -1.5595    0.0000 C   0  0  0  0  0  0  0  0  0  0  0  0
   -3.7828   -0.1946    0.0000 C   0  0  0  0  0  0  0  0  0  0  0  0
   -2.2897   -0.0510    0.0000 C   0  0  0  0  0  0  0  0  0  0  0  0
   -4.1561   -4.1457    0.0000 F   0  0  0  0  0  0  0  0  0  0  0  0
  1  2  1  0
  1  6  1  0
  2  3  1  0
  3  4  1  0
  4  5  1  0
  5  6  1  0
  6  7  1  0
  7  8  2  0
  7  9  1  0
  9 10  1  0
  9 23  2  0
 10 11  2  0
 10 15  1  0
 11 12  1  0
 12 13  2  0
 13 14  1  0
 14 15  2  0
 15 16  1  0
 16 17  1  0
 16 23  1  0
 17 18  2  0
 17 22  1  0
 18 19  1  0
 19 20  2  0
 20 21  1  0
 21 22  2  0
 23 24  1  0
 24 25  1  0
 25 26  2  0
 25 30  1  0
 26 27  1  0
 27 28  2  0
 27 31  1  0
 28 29  1  0
 29 30  2  0
M  END
>  <EXTREG>  (46) 
b1i2h

>  <ID>  (46) 
b1i2h

>  <RENIN_IC50>  (46) 
0.0630

>  <ORIGIN>  (46) 
BMCL2010

>  <RENIN_PIC50>  (46) 
7.2007

>  <TRAIN>  (46) 
train

>  <TRAIN_CLASS>  (46) 
0

$$$$
b1i2i
     RDKit          2D

 32 36  0  0  0  0  0  0  0  0999 V2000
   -4.9661    0.7617    0.0000 C   0  0  0  0  0  0  0  0  0  0  0  0
   -5.3688    2.2066    0.0000 C   0  0  0  0  0  0  0  0  0  0  0  0
   -4.3188    3.2779    0.0000 N   0  0  0  0  0  0  0  0  0  0  0  0
   -2.8661    2.9042    0.0000 C   0  0  0  0  0  0  0  0  0  0  0  0
   -2.4634    1.4593    0.0000 C   0  0  0  0  0  0  0  0  0  0  0  0
   -3.5134    0.3880    0.0000 N   0  0  0  0  0  0  0  0  0  0  0  0
   -3.1106   -1.0569    0.0000 C   0  0  0  0  0  0  0  0  0  0  0  0
   -4.1606   -2.1281    0.0000 O   0  0  0  0  0  0  0  0  0  0  0  0
   -1.6579   -1.4306    0.0000 C   0  0  0  0  0  0  0  0  0  0  0  0
   -1.1064   -2.8255    0.0000 C   0  0  0  0  0  0  0  0  0  0  0  0
   -1.7739   -4.1687    0.0000 C   0  0  0  0  0  0  0  0  0  0  0  0
   -0.9444   -5.4185    0.0000 C   0  0  0  0  0  0  0  0  0  0  0  0
    0.5527   -5.3250    0.0000 C   0  0  0  0  0  0  0  0  0  0  0  0
    1.2203   -3.9817    0.0000 C   0  0  0  0  0  0  0  0  0  0  0  0
    0.3907   -2.7319    0.0000 C   0  0  0  0  0  0  0  0  0  0  0  0
    0.7644   -1.2792    0.0000 N   0  0  0  0  0  0  0  0  0  0  0  0
    2.1593   -0.7277    0.0000 C   0  0  0  0  0  0  0  0  0  0  0  0
    2.3791    0.7561    0.0000 C   0  0  0  0  0  0  0  0  0  0  0  0
    3.7740    1.3077    0.0000 C   0  0  0  0  0  0  0  0  0  0  0  0
    4.9491    0.3755    0.0000 C   0  0  0  0  0  0  0  0  0  0  0  0
    4.7294   -1.1083    0.0000 C   0  0  0  0  0  0  0  0  0  0  0  0
    3.3344   -1.6599    0.0000 C   0  0  0  0  0  0  0  0  0  0  0  0
   -0.5017   -0.4749    0.0000 C   0  0  0  0  0  0  0  0  0  0  0  0
   -0.5953    1.0221    0.0000 O   0  0  0  0  0  0  0  0  0  0  0  0
    0.6545    1.8517    0.0000 C   0  0  0  0  0  0  0  0  0  0  0  0
    0.5610    3.3488    0.0000 C   0  0  0  0  0  0  0  0  0  0  0  0
    1.8107    4.1783    0.0000 C   0  0  0  0  0  0  0  0  0  0  0  0
    3.1540    3.5107    0.0000 C   0  0  0  0  0  0  0  0  0  0  0  0
    3.2475    2.0137    0.0000 C   0  0  0  0  0  0  0  0  0  0  0  0
    1.9978    1.1841    0.0000 C   0  0  0  0  0  0  0  0  0  0  0  0
    2.4508   -0.2458    0.0000 C   0  0  0  0  0  0  0  0  0  0  0  0
   -0.7823    4.0163    0.0000 C   0  0  0  0  0  0  0  0  0  0  0  0
  1  2  1  0
  1  6  1  0
  2  3  1  0
  3  4  1  0
  4  5  1  0
  5  6  1  0
  6  7  1  0
  7  8  2  0
  7  9  1  0
  9 10  1  0
  9 23  2  0
 10 11  2  0
 10 15  1  0
 11 12  1  0
 12 13  2  0
 13 14  1  0
 14 15  2  0
 15 16  1  0
 16 17  1  0
 16 23  1  0
 17 18  2  0
 17 22  1  0
 18 19  1  0
 19 20  2  0
 20 21  1  0
 21 22  2  0
 23 24  1  0
 24 25  1  0
 25 26  2  0
 25 30  1  0
 26 27  1  0
 26 32  1  0
 27 28  2  0
 28 29  1  0
 29 30  2  0
 30 31  1  0
M  END
>  <EXTREG>  (47) 
b1i2i

>  <ID>  (47) 
b1i2i

>  <RENIN_IC50>  (47) 
0.0640

>  <ORIGIN>  (47) 
BMCL2010

>  <RENIN_PIC50>  (47) 
7.1938

>  <TRAIN>  (47) 
train

>  <TRAIN_CLASS>  (47) 
0

$$$$
b2a4m
     RDKit          2D

 37 41  0  0  0  0  0  0  0  0999 V2000
   -1.8044   -4.3224    0.0000 C   0  0  0  0  0  0  0  0  0  0  0  0
   -3.2913   -4.1251    0.0000 C   0  0  0  0  0  0  0  0  0  0  0  0
   -3.8640   -2.7387    0.0000 N   0  0  0  0  0  0  0  0  0  0  0  0
   -2.9496   -1.5496    0.0000 C   0  0  0  0  0  0  0  0  0  0  0  0
   -1.4627   -1.7469    0.0000 C   0  0  0  0  0  0  0  0  0  0  0  0
   -0.8900   -3.1333    0.0000 N   0  0  0  0  0  0  0  0  0  0  0  0
    0.5969   -3.3306    0.0000 C   0  0  0  0  0  0  0  0  0  0  0  0
    1.1696   -4.7170    0.0000 O   0  0  0  0  0  0  0  0  0  0  0  0
    1.5113   -2.1414    0.0000 C   0  0  0  0  0  0  0  0  0  0  0  0
    3.0107   -2.1822    0.0000 C   0  0  0  0  0  0  0  0  0  0  0  0
    3.9837   -3.3238    0.0000 N   0  0  0  0  0  0  0  0  0  0  0  0
    5.4589   -3.0519    0.0000 C   0  0  0  0  0  0  0  0  0  0  0  0
    5.9610   -1.6385    0.0000 C   0  0  0  0  0  0  0  0  0  0  0  0
    4.9880   -0.4969    0.0000 C   0  0  0  0  0  0  0  0  0  0  0  0
    3.5129   -0.7688    0.0000 C   0  0  0  0  0  0  0  0  0  0  0  0
    2.3237    0.1456    0.0000 N   0  0  0  0  0  0  0  0  0  0  0  0
    2.3645    1.6450    0.0000 C   0  0  0  0  0  0  0  0  0  0  0  0
    1.0863    2.4301    0.0000 C   0  0  0  0  0  0  0  0  0  0  0  0
    1.1271    3.9295    0.0000 C   0  0  0  0  0  0  0  0  0  0  0  0
    2.4461    4.6439    0.0000 C   0  0  0  0  0  0  0  0  0  0  0  0
    3.7242    3.8589    0.0000 C   0  0  0  0  0  0  0  0  0  0  0  0
    3.6835    2.3594    0.0000 C   0  0  0  0  0  0  0  0  0  0  0  0
    1.0867   -0.7028    0.0000 C   0  0  0  0  0  0  0  0  0  0  0  0
   -0.3268   -0.2007    0.0000 O   0  0  0  0  0  0  0  0  0  0  0  0
   -0.5986    1.2745    0.0000 C   0  0  0  0  0  0  0  0  0  0  0  0
   -2.0121    1.7766    0.0000 C   0  0  0  0  0  0  0  0  0  0  0  0
   -2.2840    3.2518    0.0000 C   0  0  0  0  0  0  0  0  0  0  0  0
   -1.1424    4.2248    0.0000 C   0  0  0  0  0  0  0  0  0  0  0  0
    0.2711    3.7227    0.0000 C   0  0  0  0  0  0  0  0  0  0  0  0
    0.5430    2.2475    0.0000 C   0  0  0  0  0  0  0  0  0  0  0  0
    2.0359    2.1023    0.0000 C   0  0  0  0  0  0  0  0  0  0  0  0
   -3.1537    0.8036    0.0000 C   0  0  0  0  0  0  0  0  0  0  0  0
   -3.5223   -0.1632    0.0000 C   0  0  0  0  0  0  0  0  0  0  0  0
   -5.0092    0.0341    0.0000 C   0  0  0  0  0  0  0  0  0  0  0  0
   -5.5819    1.4205    0.0000 N   0  0  0  0  0  0  0  0  0  0  0  0
   -7.0688    1.6178    0.0000 C   0  0  0  0  0  0  0  0  0  0  0  0
   -5.9236   -1.1550    0.0000 O   0  0  0  0  0  0  0  0  0  0  0  0
  1  2  1  0
  1  6  1  0
  2  3  1  0
  3  4  1  0
  4  5  1  0
  4 33  1  0
  5  6  1  0
  6  7  1  0
  7  8  2  0
  7  9  1  0
  9 10  1  0
  9 23  2  0
 10 11  2  0
 10 15  1  0
 11 12  1  0
 12 13  2  0
 13 14  1  0
 14 15  2  0
 15 16  1  0
 16 17  1  0
 16 23  1  0
 17 18  2  0
 17 22  1  0
 18 19  1  0
 19 20  2  0
 20 21  1  0
 21 22  2  0
 23 24  1  0
 24 25  1  0
 25 26  2  0
 25 30  1  0
 26 27  1  0
 26 32  1  0
 27 28  2  0
 28 29  1  0
 29 30  2  0
 30 31  1  0
 33 34  1  0
 34 35  1  0
 34 37  2  0
 35 36  1  0
M  END
>  <EXTREG>  (48) 
b2a4m

>  <ID>  (48) 
b2a4m

>  <RENIN_IC50>  (48) 
0.0700

>  <ORIGIN>  (48) 
BMCL2011A

>  <RENIN_PIC50>  (48) 
7.1549

>  <TRAIN>  (48) 
train

>  <TRAIN_CLASS>  (48) 
0

$$$$
b1i2f
     RDKit          2D

 31 35  0  0  0  0  0  0  0  0999 V2000
   -4.8712    0.8500    0.0000 C   0  0  0  0  0  0  0  0  0  0  0  0
   -5.2454    2.3026    0.0000 C   0  0  0  0  0  0  0  0  0  0  0  0
   -4.1745    3.3529    0.0000 N   0  0  0  0  0  0  0  0  0  0  0  0
   -2.7294    2.9507    0.0000 C   0  0  0  0  0  0  0  0  0  0  0  0
   -2.3553    1.4981    0.0000 C   0  0  0  0  0  0  0  0  0  0  0  0
   -3.4262    0.4478    0.0000 N   0  0  0  0  0  0  0  0  0  0  0  0
   -3.0520   -1.0048    0.0000 C   0  0  0  0  0  0  0  0  0  0  0  0
   -4.1229   -2.0552    0.0000 O   0  0  0  0  0  0  0  0  0  0  0  0
   -1.6069   -1.4071    0.0000 C   0  0  0  0  0  0  0  0  0  0  0  0
   -1.0830   -2.8126    0.0000 C   0  0  0  0  0  0  0  0  0  0  0  0
   -1.7769   -4.1424    0.0000 C   0  0  0  0  0  0  0  0  0  0  0  0
   -0.9722   -5.4083    0.0000 C   0  0  0  0  0  0  0  0  0  0  0  0
    0.5265   -5.3443    0.0000 C   0  0  0  0  0  0  0  0  0  0  0  0
    1.2204   -4.0145    0.0000 C   0  0  0  0  0  0  0  0  0  0  0  0
    0.4157   -2.7486    0.0000 C   0  0  0  0  0  0  0  0  0  0  0  0
    0.8179   -1.3036    0.0000 N   0  0  0  0  0  0  0  0  0  0  0  0
    2.2234   -0.7796    0.0000 C   0  0  0  0  0  0  0  0  0  0  0  0
    3.3799   -1.7348    0.0000 C   0  0  0  0  0  0  0  0  0  0  0  0
    4.7855   -1.2109    0.0000 C   0  0  0  0  0  0  0  0  0  0  0  0
    5.0345    0.2683    0.0000 C   0  0  0  0  0  0  0  0  0  0  0  0
    3.8779    1.2235    0.0000 C   0  0  0  0  0  0  0  0  0  0  0  0
    2.4724    0.6996    0.0000 C   0  0  0  0  0  0  0  0  0  0  0  0
   -0.4321   -0.4744    0.0000 C   0  0  0  0  0  0  0  0  0  0  0  0
   -0.4961    1.0242    0.0000 S   0  0  0  0  0  0  0  0  0  0  0  0
    0.7698    1.8289    0.0000 C   0  0  0  0  0  0  0  0  0  0  0  0
    2.0996    1.1350    0.0000 C   0  0  0  0  0  0  0  0  0  0  0  0
    3.3655    1.9397    0.0000 C   0  0  0  0  0  0  0  0  0  0  0  0
    3.3015    3.4384    0.0000 C   0  0  0  0  0  0  0  0  0  0  0  0
    1.9717    4.1323    0.0000 C   0  0  0  0  0  0  0  0  0  0  0  0
    0.7058    3.3276    0.0000 C   0  0  0  0  0  0  0  0  0  0  0  0
   -0.6241    4.0215    0.0000 C   0  0  0  0  0  0  0  0  0  0  0  0
  1  2  1  0
  1  6  1  0
  2  3  1  0
  3  4  1  0
  4  5  1  0
  5  6  1  0
  6  7  1  0
  7  8  2  0
  7  9  1  0
  9 10  1  0
  9 23  2  0
 10 11  2  0
 10 15  1  0
 11 12  1  0
 12 13  2  0
 13 14  1  0
 14 15  2  0
 15 16  1  0
 16 17  1  0
 16 23  1  0
 17 18  2  0
 17 22  1  0
 18 19  1  0
 19 20  2  0
 20 21  1  0
 21 22  2  0
 23 24  1  0
 24 25  1  0
 25 26  2  0
 25 30  1  0
 26 27  1  0
 27 28  2  0
 28 29  1  0
 29 30  2  0
 30 31  1  0
M  END
>  <EXTREG>  (49) 
b1i2f

>  <ID>  (49) 
b1i2f

>  <RENIN_IC50>  (49) 
0.0710

>  <ORIGIN>  (49) 
BMCL2010

>  <RENIN_PIC50>  (49) 
7.1487

>  <TRAIN>  (49) 
train

>  <TRAIN_CLASS>  (49) 
0

$$$$
b3a6c
     RDKit          2D

 34 38  0  0  0  0  0  0  0  0999 V2000
   -1.7868   -4.9015    0.0000 C   0  0  0  0  0  0  0  0  0  0  0  0
   -3.2716   -5.1149    0.0000 C   0  0  0  0  0  0  0  0  0  0  0  0
   -4.1988   -3.9358    0.0000 N   0  0  0  0  0  0  0  0  0  0  0  0
   -3.6412   -2.5433    0.0000 C   0  0  0  0  0  0  0  0  0  0  0  0
   -2.1565   -2.3298    0.0000 C   0  0  0  0  0  0  0  0  0  0  0  0
   -1.2293   -3.5090    0.0000 N   0  0  0  0  0  0  0  0  0  0  0  0
    0.2554   -3.2955    0.0000 C   0  0  0  0  0  0  0  0  0  0  0  0
    1.1826   -4.4746    0.0000 O   0  0  0  0  0  0  0  0  0  0  0  0
    0.8130   -1.9030    0.0000 C   0  0  0  0  0  0  0  0  0  0  0  0
    2.2673   -1.5355    0.0000 C   0  0  0  0  0  0  0  0  0  0  0  0
    3.5135   -2.3704    0.0000 C   0  0  0  0  0  0  0  0  0  0  0  0
    4.8596   -1.7086    0.0000 N   0  0  0  0  0  0  0  0  0  0  0  0
    4.9595   -0.2120    0.0000 C   0  0  0  0  0  0  0  0  0  0  0  0
    3.7133    0.6229    0.0000 C   0  0  0  0  0  0  0  0  0  0  0  0
    2.3672   -0.0389    0.0000 C   0  0  0  0  0  0  0  0  0  0  0  0
    0.9747    0.5187    0.0000 N   0  0  0  0  0  0  0  0  0  0  0  0
    0.6072    1.9730    0.0000 C   0  0  0  0  0  0  0  0  0  0  0  0
   -0.8360    2.3819    0.0000 C   0  0  0  0  0  0  0  0  0  0  0  0
   -1.2034    3.8362    0.0000 C   0  0  0  0  0  0  0  0  0  0  0  0
   -0.1277    4.8816    0.0000 C   0  0  0  0  0  0  0  0  0  0  0  0
    1.3155    4.4726    0.0000 C   0  0  0  0  0  0  0  0  0  0  0  0
    1.6829    3.0183    0.0000 C   0  0  0  0  0  0  0  0  0  0  0  0
    0.0141   -0.6334    0.0000 C   0  0  0  0  0  0  0  0  0  0  0  0
   -1.4826   -0.5335    0.0000 O   0  0  0  0  0  0  0  0  0  0  0  0
   -2.1444    0.8126    0.0000 C   0  0  0  0  0  0  0  0  0  0  0  0
   -1.3095    2.0588    0.0000 C   0  0  0  0  0  0  0  0  0  0  0  0
   -1.9713    3.4049    0.0000 C   0  0  0  0  0  0  0  0  0  0  0  0
   -3.4679    3.5049    0.0000 C   0  0  0  0  0  0  0  0  0  0  0  0
   -4.3028    2.2587    0.0000 C   0  0  0  0  0  0  0  0  0  0  0  0
   -3.6410    0.9126    0.0000 C   0  0  0  0  0  0  0  0  0  0  0  0
   -4.4759   -0.3336    0.0000 C   0  0  0  0  0  0  0  0  0  0  0  0
   -1.1364    4.6511    0.0000 F   0  0  0  0  0  0  0  0  0  0  0  0
    6.3056    0.4498    0.0000 O   0  0  0  0  0  0  0  0  0  0  0  0
    7.5518   -0.3851    0.0000 C   0  0  0  0  0  0  0  0  0  0  0  0
  1  2  1  0
  1  6  1  0
  2  3  1  0
  3  4  1  0
  4  5  1  0
  5  6  1  0
  6  7  1  0
  7  8  2  0
  7  9  1  0
  9 10  1  0
  9 23  2  0
 10 11  2  0
 10 15  1  0
 11 12  1  0
 12 13  2  0
 13 14  1  0
 13 33  1  0
 14 15  2  0
 15 16  1  0
 16 17  1  0
 16 23  1  0
 17 18  2  0
 17 22  1  0
 18 19  1  0
 19 20  2  0
 20 21  1  0
 21 22  2  0
 23 24  1  0
 24 25  1  0
 25 26  2  0
 25 30  1  0
 26 27  1  0
 27 28  2  0
 27 32  1  0
 28 29  1  0
 29 30  2  0
 30 31  1  0
 33 34  1  0
M  END
>  <EXTREG>  (50) 
b3a6c

>  <ID>  (50) 
b3a6c

>  <RENIN_IC50>  (50) 
0.0730

>  <ORIGIN>  (50) 
BMCL2011B

>  <RENIN_PIC50>  (50) 
7.1367

>  <TRAIN>  (50) 
train

>  <TRAIN_CLASS>  (50) 
0

$$$$
b2a3fr
     RDKit          2D

 32 36  0  0  0  0  0  0  0  0999 V2000
   -4.9661    0.7617    0.0000 C   0  0  0  0  0  0  0  0  0  0  0  0
   -5.3688    2.2066    0.0000 C   0  0  0  0  0  0  0  0  0  0  0  0
   -4.3188    3.2779    0.0000 N   0  0  0  0  0  0  0  0  0  0  0  0
   -2.8661    2.9042    0.0000 C   0  0  0  0  0  0  0  0  0  0  0  0
   -2.4634    1.4593    0.0000 C   0  0  0  0  0  0  0  0  0  0  0  0
   -3.5134    0.3880    0.0000 N   0  0  0  0  0  0  0  0  0  0  0  0
   -3.1106   -1.0569    0.0000 C   0  0  0  0  0  0  0  0  0  0  0  0
   -4.1606   -2.1281    0.0000 O   0  0  0  0  0  0  0  0  0  0  0  0
   -1.6579   -1.4306    0.0000 C   0  0  0  0  0  0  0  0  0  0  0  0
   -1.1064   -2.8255    0.0000 C   0  0  0  0  0  0  0  0  0  0  0  0
   -1.7739   -4.1687    0.0000 N   0  0  0  0  0  0  0  0  0  0  0  0
   -0.9444   -5.4185    0.0000 C   0  0  0  0  0  0  0  0  0  0  0  0
    0.5527   -5.3250    0.0000 C   0  0  0  0  0  0  0  0  0  0  0  0
    1.2203   -3.9817    0.0000 C   0  0  0  0  0  0  0  0  0  0  0  0
    0.3907   -2.7319    0.0000 C   0  0  0  0  0  0  0  0  0  0  0  0
    0.7644   -1.2792    0.0000 N   0  0  0  0  0  0  0  0  0  0  0  0
    2.1593   -0.7277    0.0000 C   0  0  0  0  0  0  0  0  0  0  0  0
    2.3791    0.7561    0.0000 C   0  0  0  0  0  0  0  0  0  0  0  0
    3.7740    1.3077    0.0000 C   0  0  0  0  0  0  0  0  0  0  0  0
    4.9491    0.3755    0.0000 C   0  0  0  0  0  0  0  0  0  0  0  0
    4.7294   -1.1083    0.0000 C   0  0  0  0  0  0  0  0  0  0  0  0
    3.3344   -1.6599    0.0000 C   0  0  0  0  0  0  0  0  0  0  0  0
   -0.5017   -0.4749    0.0000 C   0  0  0  0  0  0  0  0  0  0  0  0
   -0.5953    1.0221    0.0000 O   0  0  0  0  0  0  0  0  0  0  0  0
    0.6545    1.8517    0.0000 C   0  0  0  0  0  0  0  0  0  0  0  0
    0.5610    3.3488    0.0000 C   0  0  0  0  0  0  0  0  0  0  0  0
    1.8107    4.1783    0.0000 C   0  0  0  0  0  0  0  0  0  0  0  0
    3.1540    3.5107    0.0000 C   0  0  0  0  0  0  0  0  0  0  0  0
    3.2475    2.0137    0.0000 C   0  0  0  0  0  0  0  0  0  0  0  0
    1.9978    1.1841    0.0000 C   0  0  0  0  0  0  0  0  0  0  0  0
    2.4508   -0.2458    0.0000 C   0  0  0  0  0  0  0  0  0  0  0  0
   -0.7823    4.0163    0.0000 F   0  0  0  0  0  0  0  0  0  0  0  0
  1  2  1  0
  1  6  1  0
  2  3  1  0
  3  4  1  0
  4  5  1  0
  5  6  1  0
  6  7  1  0
  7  8  2  0
  7  9  1  0
  9 10  1  0
  9 23  2  0
 10 11  2  0
 10 15  1  0
 11 12  1  0
 12 13  2  0
 13 14  1  0
 14 15  2  0
 15 16  1  0
 16 17  1  0
 16 23  1  0
 17 18  2  0
 17 22  1  0
 18 19  1  0
 19 20  2  0
 20 21  1  0
 21 22  2  0
 23 24  1  0
 24 25  1  0
 25 26  2  0
 25 30  1  0
 26 27  1  0
 26 32  1  0
 27 28  2  0
 28 29  1  0
 29 30  2  0
 30 31  1  0
M  END
>  <EXTREG>  (51) 
b2a3fr

>  <ID>  (51) 
b2a3fr

>  <RENIN_IC50>  (51) 
0.0740

>  <ORIGIN>  (51) 
BMCL2011A

>  <RENIN_PIC50>  (51) 
7.1308

>  <TRAIN>  (51) 
train

>  <TRAIN_CLASS>  (51) 
0

$$$$
b2a5e
     RDKit          2D

 35 39  0  0  0  0  0  0  0  0999 V2000
   -2.3726   -4.7057    0.0000 C   0  0  0  0  0  0  0  0  0  0  0  0
   -3.8676   -4.8273    0.0000 C   0  0  0  0  0  0  0  0  0  0  0  0
   -4.7205   -3.5934    0.0000 N   0  0  0  0  0  0  0  0  0  0  0  0
   -4.0782   -2.2378    0.0000 C   0  0  0  0  0  0  0  0  0  0  0  0
   -2.5832   -2.1162    0.0000 C   0  0  0  0  0  0  0  0  0  0  0  0
   -1.7304   -3.3502    0.0000 N   0  0  0  0  0  0  0  0  0  0  0  0
   -0.2353   -3.2286    0.0000 C   0  0  0  0  0  0  0  0  0  0  0  0
    0.6175   -4.4626    0.0000 O   0  0  0  0  0  0  0  0  0  0  0  0
    0.4069   -1.8730    0.0000 C   0  0  0  0  0  0  0  0  0  0  0  0
    1.8811   -1.5958    0.0000 C   0  0  0  0  0  0  0  0  0  0  0  0
    3.0735   -2.5059    0.0000 N   0  0  0  0  0  0  0  0  0  0  0  0
    4.4578   -1.9282    0.0000 C   0  0  0  0  0  0  0  0  0  0  0  0
    4.6497   -0.4405    0.0000 C   0  0  0  0  0  0  0  0  0  0  0  0
    3.4573    0.4695    0.0000 C   0  0  0  0  0  0  0  0  0  0  0  0
    2.0730   -0.1081    0.0000 C   0  0  0  0  0  0  0  0  0  0  0  0
    0.7174    0.5341    0.0000 N   0  0  0  0  0  0  0  0  0  0  0  0
    0.4402    2.0082    0.0000 C   0  0  0  0  0  0  0  0  0  0  0  0
   -0.9750    2.5053    0.0000 C   0  0  0  0  0  0  0  0  0  0  0  0
   -1.2522    3.9794    0.0000 C   0  0  0  0  0  0  0  0  0  0  0  0
   -0.1142    4.9566    0.0000 C   0  0  0  0  0  0  0  0  0  0  0  0
    1.3011    4.4596    0.0000 C   0  0  0  0  0  0  0  0  0  0  0  0
    1.5783    2.9854    0.0000 C   0  0  0  0  0  0  0  0  0  0  0  0
   -0.3122   -0.5567    0.0000 C   0  0  0  0  0  0  0  0  0  0  0  0
   -1.7999   -0.3648    0.0000 O   0  0  0  0  0  0  0  0  0  0  0  0
   -2.3776    1.0195    0.0000 C   0  0  0  0  0  0  0  0  0  0  0  0
   -1.4675    2.2120    0.0000 C   0  0  0  0  0  0  0  0  0  0  0  0
   -2.0452    3.5963    0.0000 C   0  0  0  0  0  0  0  0  0  0  0  0
   -3.5328    3.7882    0.0000 C   0  0  0  0  0  0  0  0  0  0  0  0
   -4.4429    2.5958    0.0000 C   0  0  0  0  0  0  0  0  0  0  0  0
   -3.8652    1.2114    0.0000 C   0  0  0  0  0  0  0  0  0  0  0  0
   -4.7753    0.0190    0.0000 C   0  0  0  0  0  0  0  0  0  0  0  0
    0.0224    2.3857    0.0000 C   0  0  0  0  0  0  0  0  0  0  0  0
    6.0341    0.1371    0.0000 O   0  0  0  0  0  0  0  0  0  0  0  0
    7.2265   -0.7729    0.0000 C   0  0  0  0  0  0  0  0  0  0  0  0
    8.6108   -0.1953    0.0000 C   0  0  0  0  0  0  0  0  0  0  0  0
  1  2  1  0
  1  6  1  0
  2  3  1  0
  3  4  1  0
  4  5  1  0
  5  6  1  0
  6  7  1  0
  7  8  2  0
  7  9  1  0
  9 10  1  0
  9 23  2  0
 10 11  2  0
 10 15  1  0
 11 12  1  0
 12 13  2  0
 13 14  1  0
 13 33  1  0
 14 15  2  0
 15 16  1  0
 16 17  1  0
 16 23  1  0
 17 18  2  0
 17 22  1  0
 18 19  1  0
 19 20  2  0
 20 21  1  0
 21 22  2  0
 23 24  1  0
 24 25  1  0
 25 26  2  0
 25 30  1  0
 26 27  1  0
 26 32  1  0
 27 28  2  0
 28 29  1  0
 29 30  2  0
 30 31  1  0
 33 34  1  0
 34 35  1  0
M  END
>  <EXTREG>  (52) 
b2a5e

>  <ID>  (52) 
b2a5e

>  <RENIN_IC50>  (52) 
0.0800

>  <ORIGIN>  (52) 
BMCL2011A

>  <RENIN_PIC50>  (52) 
7.0969

>  <TRAIN>  (52) 
train

>  <TRAIN_CLASS>  (52) 
0

$$$$
b3a6h
     RDKit          2D

 33 37  0  0  0  0  0  0  0  0999 V2000
   -4.0170   -3.1412    0.0000 C   0  0  0  0  0  0  0  0  0  0  0  0
   -5.3704   -2.4945    0.0000 C   0  0  0  0  0  0  0  0  0  0  0  0
   -5.4871   -0.9990    0.0000 N   0  0  0  0  0  0  0  0  0  0  0  0
   -4.2503   -0.1503    0.0000 C   0  0  0  0  0  0  0  0  0  0  0  0
   -2.8969   -0.7969    0.0000 C   0  0  0  0  0  0  0  0  0  0  0  0
   -2.7802   -2.2924    0.0000 N   0  0  0  0  0  0  0  0  0  0  0  0
   -1.4268   -2.9391    0.0000 C   0  0  0  0  0  0  0  0  0  0  0  0
   -1.3101   -4.4345    0.0000 O   0  0  0  0  0  0  0  0  0  0  0  0
   -0.1900   -2.0903    0.0000 C   0  0  0  0  0  0  0  0  0  0  0  0
    1.2236   -2.5920    0.0000 C   0  0  0  0  0  0  0  0  0  0  0  0
    1.7967   -3.9782    0.0000 C   0  0  0  0  0  0  0  0  0  0  0  0
    3.2837   -4.1750    0.0000 N   0  0  0  0  0  0  0  0  0  0  0  0
    4.1977   -2.9856    0.0000 C   0  0  0  0  0  0  0  0  0  0  0  0
    3.6246   -1.5994    0.0000 C   0  0  0  0  0  0  0  0  0  0  0  0
    2.1375   -1.4026    0.0000 C   0  0  0  0  0  0  0  0  0  0  0  0
    1.2888   -0.1658    0.0000 N   0  0  0  0  0  0  0  0  0  0  0  0
    1.7905    1.2478    0.0000 C   0  0  0  0  0  0  0  0  0  0  0  0
    0.8171    2.3891    0.0000 C   0  0  0  0  0  0  0  0  0  0  0  0
    1.3187    3.8027    0.0000 C   0  0  0  0  0  0  0  0  0  0  0  0
    2.7938    4.0751    0.0000 C   0  0  0  0  0  0  0  0  0  0  0  0
    3.7672    2.9338    0.0000 C   0  0  0  0  0  0  0  0  0  0  0  0
    3.2655    1.5202    0.0000 C   0  0  0  0  0  0  0  0  0  0  0  0
   -0.1497   -0.5909    0.0000 C   0  0  0  0  0  0  0  0  0  0  0  0
   -1.3391    0.3231    0.0000 O   0  0  0  0  0  0  0  0  0  0  0  0
   -1.1423    1.8101    0.0000 C   0  0  0  0  0  0  0  0  0  0  0  0
   -2.3318    2.7241    0.0000 C   0  0  0  0  0  0  0  0  0  0  0  0
   -2.1350    4.2111    0.0000 C   0  0  0  0  0  0  0  0  0  0  0  0
   -0.7487    4.7842    0.0000 C   0  0  0  0  0  0  0  0  0  0  0  0
    0.4407    3.8702    0.0000 C   0  0  0  0  0  0  0  0  0  0  0  0
    0.2439    2.3832    0.0000 C   0  0  0  0  0  0  0  0  0  0  0  0
    1.6191    1.7842    0.0000 C   0  0  0  0  0  0  0  0  0  0  0  0
   -3.7180    2.1510    0.0000 C   0  0  0  0  0  0  0  0  0  0  0  0
    5.6847   -3.1824    0.0000 O   0  0  0  0  0  0  0  0  0  0  0  0
  1  2  1  0
  1  6  1  0
  2  3  1  0
  3  4  1  0
  4  5  1  0
  5  6  1  0
  6  7  1  0
  7  8  2  0
  7  9  1  0
  9 10  1  0
  9 23  2  0
 10 11  2  0
 10 15  1  0
 11 12  1  0
 12 13  1  0
 13 14  1  0
 13 33  2  0
 14 15  2  0
 15 16  1  0
 16 17  1  0
 16 23  1  0
 17 18  1  0
 17 22  1  0
 18 19  1  0
 19 20  1  0
 20 21  1  0
 21 22  1  0
 23 24  1  0
 24 25  1  0
 25 26  2  0
 25 30  1  0
 26 27  1  0
 26 32  1  0
 27 28  2  0
 28 29  1  0
 29 30  2  0
 30 31  1  0
M  END
>  <EXTREG>  (53) 
b3a6h

>  <ID>  (53) 
b3a6h

>  <RENIN_IC50>  (53) 
0.0800

>  <ORIGIN>  (53) 
BMCL2011B

>  <RENIN_PIC50>  (53) 
7.0969

>  <TRAIN>  (53) 
train

>  <TRAIN_CLASS>  (53) 
0

$$$$
b2a4b
     RDKit          2D

 33 37  0  0  0  0  0  0  0  0999 V2000
   -4.9165   -0.5977    0.0000 C   0  0  0  0  0  0  0  0  0  0  0  0
   -5.6653    0.7020    0.0000 C   0  0  0  0  0  0  0  0  0  0  0  0
   -4.9141    2.0003    0.0000 N   0  0  0  0  0  0  0  0  0  0  0  0
   -3.4141    1.9989    0.0000 C   0  0  0  0  0  0  0  0  0  0  0  0
   -2.6653    0.6992    0.0000 C   0  0  0  0  0  0  0  0  0  0  0  0
   -3.4165   -0.5992    0.0000 N   0  0  0  0  0  0  0  0  0  0  0  0
   -2.6678   -1.8989    0.0000 C   0  0  0  0  0  0  0  0  0  0  0  0
   -3.4190   -3.1972    0.0000 O   0  0  0  0  0  0  0  0  0  0  0  0
   -1.1678   -1.9003    0.0000 C   0  0  0  0  0  0  0  0  0  0  0  0
   -0.2872   -3.1147    0.0000 C   0  0  0  0  0  0  0  0  0  0  0  0
   -0.6005   -4.5816    0.0000 N   0  0  0  0  0  0  0  0  0  0  0  0
    0.5133   -5.5864    0.0000 C   0  0  0  0  0  0  0  0  0  0  0  0
    1.9403   -5.1242    0.0000 C   0  0  0  0  0  0  0  0  0  0  0  0
    2.2535   -3.6573    0.0000 C   0  0  0  0  0  0  0  0  0  0  0  0
    1.1398   -2.6525    0.0000 C   0  0  0  0  0  0  0  0  0  0  0  0
    1.1412   -1.1525    0.0000 N   0  0  0  0  0  0  0  0  0  0  0  0
    2.3556   -0.2720    0.0000 C   0  0  0  0  0  0  0  0  0  0  0  0
    2.2002    1.2199    0.0000 C   0  0  0  0  0  0  0  0  0  0  0  0
    3.4146    2.1005    0.0000 C   0  0  0  0  0  0  0  0  0  0  0  0
    4.7843    1.4891    0.0000 C   0  0  0  0  0  0  0  0  0  0  0  0
    4.9397   -0.0029    0.0000 C   0  0  0  0  0  0  0  0  0  0  0  0
    3.7253   -0.8834    0.0000 C   0  0  0  0  0  0  0  0  0  0  0  0
   -0.2849   -0.6876    0.0000 C   0  0  0  0  0  0  0  0  0  0  0  0
   -0.7471    0.7394    0.0000 O   0  0  0  0  0  0  0  0  0  0  0  0
    0.2576    1.8531    0.0000 C   0  0  0  0  0  0  0  0  0  0  0  0
   -0.2045    3.2802    0.0000 C   0  0  0  0  0  0  0  0  0  0  0  0
    0.8002    4.3939    0.0000 C   0  0  0  0  0  0  0  0  0  0  0  0
    2.2672    4.0807    0.0000 C   0  0  0  0  0  0  0  0  0  0  0  0
    2.7293    2.6536    0.0000 C   0  0  0  0  0  0  0  0  0  0  0  0
    1.7246    1.5399    0.0000 C   0  0  0  0  0  0  0  0  0  0  0  0
    2.5183    0.2671    0.0000 C   0  0  0  0  0  0  0  0  0  0  0  0
   -1.6714    3.5934    0.0000 C   0  0  0  0  0  0  0  0  0  0  0  0
   -2.6628    3.2972    0.0000 C   0  0  0  0  0  0  0  0  0  0  0  0
  1  2  1  0
  1  6  1  0
  2  3  1  0
  3  4  1  0
  4  5  1  0
  4 33  1  0
  5  6  1  0
  6  7  1  0
  7  8  2  0
  7  9  1  0
  9 10  1  0
  9 23  2  0
 10 11  2  0
 10 15  1  0
 11 12  1  0
 12 13  2  0
 13 14  1  0
 14 15  2  0
 15 16  1  0
 16 17  1  0
 16 23  1  0
 17 18  1  0
 17 22  1  0
 18 19  1  0
 19 20  1  0
 20 21  1  0
 21 22  1  0
 23 24  1  0
 24 25  1  0
 25 26  2  0
 25 30  1  0
 26 27  1  0
 26 32  1  0
 27 28  2  0
 28 29  1  0
 29 30  2  0
 30 31  1  0
M  END
>  <EXTREG>  (54) 
b2a4b

>  <ID>  (54) 
b2a4b

>  <RENIN_IC50>  (54) 
0.0800

>  <ORIGIN>  (54) 
BMCL2011A

>  <RENIN_PIC50>  (54) 
7.0969

>  <TRAIN>  (54) 
test

>  <TRAIN_CLASS>  (54) 
1

$$$$
b1i5l
     RDKit          2D

 33 37  0  0  0  0  0  0  0  0999 V2000
   -1.0200   -4.9711    0.0000 C   0  0  0  0  0  0  0  0  0  0  0  0
   -2.4877   -5.2807    0.0000 C   0  0  0  0  0  0  0  0  0  0  0  0
   -3.4897   -4.1644    0.0000 N   0  0  0  0  0  0  0  0  0  0  0  0
   -3.0239   -2.7385    0.0000 C   0  0  0  0  0  0  0  0  0  0  0  0
   -1.5562   -2.4290    0.0000 C   0  0  0  0  0  0  0  0  0  0  0  0
   -0.5542   -3.5453    0.0000 N   0  0  0  0  0  0  0  0  0  0  0  0
    0.9135   -3.2358    0.0000 C   0  0  0  0  0  0  0  0  0  0  0  0
    1.9154   -4.3521    0.0000 O   0  0  0  0  0  0  0  0  0  0  0  0
    1.3793   -1.8099    0.0000 C   0  0  0  0  0  0  0  0  0  0  0  0
    2.8066   -1.3487    0.0000 C   0  0  0  0  0  0  0  0  0  0  0  0
    4.1044   -2.1007    0.0000 C   0  0  0  0  0  0  0  0  0  0  0  0
    5.4047   -1.3528    0.0000 C   0  0  0  0  0  0  0  0  0  0  0  0
    5.4071    0.1472    0.0000 C   0  0  0  0  0  0  0  0  0  0  0  0
    4.1092    0.8993    0.0000 C   0  0  0  0  0  0  0  0  0  0  0  0
    2.8090    0.1513    0.0000 C   0  0  0  0  0  0  0  0  0  0  0  0
    1.3831    0.6171    0.0000 N   0  0  0  0  0  0  0  0  0  0  0  0
    0.9219    2.0444    0.0000 C   0  0  0  0  0  0  0  0  0  0  0  0
   -0.5448    2.3586    0.0000 C   0  0  0  0  0  0  0  0  0  0  0  0
   -1.0061    3.7860    0.0000 C   0  0  0  0  0  0  0  0  0  0  0  0
   -0.0006    4.8991    0.0000 C   0  0  0  0  0  0  0  0  0  0  0  0
    1.4661    4.5849    0.0000 C   0  0  0  0  0  0  0  0  0  0  0  0
    1.9273    3.1576    0.0000 C   0  0  0  0  0  0  0  0  0  0  0  0
    0.4995   -0.5950    0.0000 C   0  0  0  0  0  0  0  0  0  0  0  0
   -1.0005   -0.5926    0.0000 C   0  0  0  0  0  0  0  0  0  0  0  0
   -1.7484    0.7076    0.0000 C   0  0  0  0  0  0  0  0  0  0  0  0
   -3.2484    0.7100    0.0000 C   0  0  0  0  0  0  0  0  0  0  0  0
   -3.9963    2.0102    0.0000 C   0  0  0  0  0  0  0  0  0  0  0  0
   -3.2443    3.3081    0.0000 C   0  0  0  0  0  0  0  0  0  0  0  0
   -1.7443    3.3057    0.0000 C   0  0  0  0  0  0  0  0  0  0  0  0
   -0.9963    2.0055    0.0000 C   0  0  0  0  0  0  0  0  0  0  0  0
   -5.4963    2.0126    0.0000 F   0  0  0  0  0  0  0  0  0  0  0  0
   -4.0005   -0.5878    0.0000 C   0  0  0  0  0  0  0  0  0  0  0  0
    4.1116    2.3993    0.0000 F   0  0  0  0  0  0  0  0  0  0  0  0
  1  2  1  0
  1  6  1  0
  2  3  1  0
  3  4  1  0
  4  5  1  0
  5  6  1  0
  6  7  1  0
  7  8  2  0
  7  9  1  0
  9 10  1  0
  9 23  2  0
 10 11  2  0
 10 15  1  0
 11 12  1  0
 12 13  2  0
 13 14  1  0
 14 15  2  0
 14 33  1  0
 15 16  1  0
 16 17  1  0
 16 23  1  0
 17 18  2  0
 17 22  1  0
 18 19  1  0
 19 20  2  0
 20 21  1  0
 21 22  2  0
 23 24  1  0
 24 25  1  0
 25 26  2  0
 25 30  1  0
 26 27  1  0
 26 32  1  0
 27 28  2  0
 27 31  1  0
 28 29  1  0
 29 30  2  0
M  END
>  <EXTREG>  (55) 
b1i5l

>  <ID>  (55) 
b1i5l

>  <RENIN_IC50>  (55) 
0.0840

>  <ORIGIN>  (55) 
BMCL2010

>  <RENIN_PIC50>  (55) 
7.0757

>  <TRAIN>  (55) 
train

>  <TRAIN_CLASS>  (55) 
0

$$$$
b3a3i
     RDKit          2D

 32 36  0  0  0  0  0  0  0  0999 V2000
    3.4020   -3.6323    0.0000 C   0  0  0  0  0  0  0  0  0  0  0  0
    2.7765   -4.9957    0.0000 C   0  0  0  0  0  0  0  0  0  0  0  0
    1.2830   -5.1356    0.0000 N   0  0  0  0  0  0  0  0  0  0  0  0
    0.4151   -3.9122    0.0000 C   0  0  0  0  0  0  0  0  0  0  0  0
    1.0406   -2.5489    0.0000 C   0  0  0  0  0  0  0  0  0  0  0  0
    2.5341   -2.4089    0.0000 N   0  0  0  0  0  0  0  0  0  0  0  0
    3.1596   -1.0456    0.0000 C   0  0  0  0  0  0  0  0  0  0  0  0
    4.6531   -0.9056    0.0000 O   0  0  0  0  0  0  0  0  0  0  0  0
    2.2917    0.1778    0.0000 C   0  0  0  0  0  0  0  0  0  0  0  0
    2.7713    1.5991    0.0000 C   0  0  0  0  0  0  0  0  0  0  0  0
    4.1484    2.1937    0.0000 C   0  0  0  0  0  0  0  0  0  0  0  0
    4.3220    3.6836    0.0000 C   0  0  0  0  0  0  0  0  0  0  0  0
    3.1185    4.5789    0.0000 C   0  0  0  0  0  0  0  0  0  0  0  0
    1.7414    3.9843    0.0000 N   0  0  0  0  0  0  0  0  0  0  0  0
    1.5678    2.4944    0.0000 C   0  0  0  0  0  0  0  0  0  0  0  0
    0.3444    1.6265    0.0000 N   0  0  0  0  0  0  0  0  0  0  0  0
   -1.0769    2.1061    0.0000 C   0  0  0  0  0  0  0  0  0  0  0  0
   -1.3722    3.5767    0.0000 C   0  0  0  0  0  0  0  0  0  0  0  0
   -2.7934    4.0563    0.0000 C   0  0  0  0  0  0  0  0  0  0  0  0
   -3.9194    3.0653    0.0000 C   0  0  0  0  0  0  0  0  0  0  0  0
   -3.6241    1.5946    0.0000 C   0  0  0  0  0  0  0  0  0  0  0  0
   -2.2029    1.1150    0.0000 C   0  0  0  0  0  0  0  0  0  0  0  0
    0.7918    0.1947    0.0000 C   0  0  0  0  0  0  0  0  0  0  0  0
   -0.1036   -1.0088    0.0000 C   0  0  0  0  0  0  0  0  0  0  0  0
   -1.5935   -0.8351    0.0000 C   0  0  0  0  0  0  0  0  0  0  0  0
   -2.1881    0.5420    0.0000 C   0  0  0  0  0  0  0  0  0  0  0  0
   -3.6780    0.7156    0.0000 C   0  0  0  0  0  0  0  0  0  0  0  0
   -4.5733   -0.4879    0.0000 C   0  0  0  0  0  0  0  0  0  0  0  0
   -3.9787   -1.8650    0.0000 C   0  0  0  0  0  0  0  0  0  0  0  0
   -2.4888   -2.0386    0.0000 C   0  0  0  0  0  0  0  0  0  0  0  0
   -1.8942   -3.4157    0.0000 C   0  0  0  0  0  0  0  0  0  0  0  0
   -4.8740   -3.0685    0.0000 F   0  0  0  0  0  0  0  0  0  0  0  0
  1  2  1  0
  1  6  1  0
  2  3  1  0
  3  4  1  0
  4  5  1  0
  5  6  1  0
  6  7  1  0
  7  8  2  0
  7  9  1  0
  9 10  1  0
  9 23  2  0
 10 11  2  0
 10 15  1  0
 11 12  1  0
 12 13  2  0
 13 14  1  0
 14 15  2  0
 15 16  1  0
 16 17  1  0
 16 23  1  0
 17 18  2  0
 17 22  1  0
 18 19  1  0
 19 20  2  0
 20 21  1  0
 21 22  2  0
 23 24  1  0
 24 25  1  0
 25 26  2  0
 25 30  1  0
 26 27  1  0
 27 28  2  0
 28 29  1  0
 29 30  2  0
 29 32  1  0
 30 31  1  0
M  END
>  <EXTREG>  (56) 
b3a3i

>  <ID>  (56) 
b3a3i

>  <RENIN_IC50>  (56) 
0.0860

>  <ORIGIN>  (56) 
BMCL2011B

>  <RENIN_PIC50>  (56) 
7.0655

>  <TRAIN>  (56) 
train

>  <TRAIN_CLASS>  (56) 
0

$$$$
b3a6f
     RDKit          2D

 33 37  0  0  0  0  0  0  0  0999 V2000
   -0.6180   -5.0086    0.0000 C   0  0  0  0  0  0  0  0  0  0  0  0
   -2.0490   -5.4584    0.0000 C   0  0  0  0  0  0  0  0  0  0  0  0
   -3.1540   -4.4440    0.0000 N   0  0  0  0  0  0  0  0  0  0  0  0
   -2.8281   -2.9799    0.0000 C   0  0  0  0  0  0  0  0  0  0  0  0
   -1.3971   -2.5301    0.0000 C   0  0  0  0  0  0  0  0  0  0  0  0
   -0.2921   -3.5445    0.0000 N   0  0  0  0  0  0  0  0  0  0  0  0
    1.1389   -3.0947    0.0000 C   0  0  0  0  0  0  0  0  0  0  0  0
    2.2439   -4.1091    0.0000 O   0  0  0  0  0  0  0  0  0  0  0  0
    1.4649   -1.6305    0.0000 C   0  0  0  0  0  0  0  0  0  0  0  0
    2.8410   -1.0336    0.0000 C   0  0  0  0  0  0  0  0  0  0  0  0
    4.2054   -1.6569    0.0000 C   0  0  0  0  0  0  0  0  0  0  0  0
    5.4273   -0.7869    0.0000 N   0  0  0  0  0  0  0  0  0  0  0  0
    5.2849    0.7063    0.0000 C   0  0  0  0  0  0  0  0  0  0  0  0
    3.9205    1.3295    0.0000 C   0  0  0  0  0  0  0  0  0  0  0  0
    2.6986    0.4596    0.0000 C   0  0  0  0  0  0  0  0  0  0  0  0
    1.2344    0.7855    0.0000 N   0  0  0  0  0  0  0  0  0  0  0  0
    0.6375    2.1617    0.0000 C   0  0  0  0  0  0  0  0  0  0  0  0
   -0.8527    2.3328    0.0000 C   0  0  0  0  0  0  0  0  0  0  0  0
   -1.4496    3.7089    0.0000 C   0  0  0  0  0  0  0  0  0  0  0  0
   -0.5563    4.9139    0.0000 C   0  0  0  0  0  0  0  0  0  0  0  0
    0.9339    4.7428    0.0000 C   0  0  0  0  0  0  0  0  0  0  0  0
    1.5308    3.3667    0.0000 C   0  0  0  0  0  0  0  0  0  0  0  0
    0.4719   -0.5062    0.0000 C   0  0  0  0  0  0  0  0  0  0  0  0
   -1.0213   -0.6487    0.0000 C   0  0  0  0  0  0  0  0  0  0  0  0
   -1.8912    0.5733    0.0000 C   0  0  0  0  0  0  0  0  0  0  0  0
   -1.2680    1.9377    0.0000 C   0  0  0  0  0  0  0  0  0  0  0  0
   -2.1380    3.1596    0.0000 C   0  0  0  0  0  0  0  0  0  0  0  0
   -3.6312    3.0172    0.0000 C   0  0  0  0  0  0  0  0  0  0  0  0
   -4.2544    1.6528    0.0000 C   0  0  0  0  0  0  0  0  0  0  0  0
   -3.3845    0.4308    0.0000 C   0  0  0  0  0  0  0  0  0  0  0  0
   -4.0077   -0.9335    0.0000 C   0  0  0  0  0  0  0  0  0  0  0  0
   -5.7477    1.5104    0.0000 F   0  0  0  0  0  0  0  0  0  0  0  0
    6.5068    1.5763    0.0000 O   0  0  0  0  0  0  0  0  0  0  0  0
  1  2  1  0
  1  6  1  0
  2  3  1  0
  3  4  1  0
  4  5  1  0
  5  6  1  0
  6  7  1  0
  7  8  2  0
  7  9  1  0
  9 10  1  0
  9 23  2  0
 10 11  2  0
 10 15  1  0
 11 12  1  0
 12 13  1  0
 13 14  1  0
 13 33  2  0
 14 15  2  0
 15 16  1  0
 16 17  1  0
 16 23  1  0
 17 18  2  0
 17 22  1  0
 18 19  1  0
 19 20  2  0
 20 21  1  0
 21 22  2  0
 23 24  1  0
 24 25  1  0
 25 26  2  0
 25 30  1  0
 26 27  1  0
 27 28  2  0
 28 29  1  0
 29 30  2  0
 29 32  1  0
 30 31  1  0
M  END
>  <EXTREG>  (57) 
b3a6f

>  <ID>  (57) 
b3a6f

>  <RENIN_IC50>  (57) 
0.0880

>  <ORIGIN>  (57) 
BMCL2011B

>  <RENIN_PIC50>  (57) 
7.0555

>  <TRAIN>  (57) 
train

>  <TRAIN_CLASS>  (57) 
0

$$$$
b3a4g
     RDKit          2D

 34 38  0  0  0  0  0  0  0  0999 V2000
    2.2294   -4.2658    0.0000 C   0  0  0  0  0  0  0  0  0  0  0  0
    1.3408   -5.4743    0.0000 C   0  0  0  0  0  0  0  0  0  0  0  0
   -0.1501   -5.3090    0.0000 N   0  0  0  0  0  0  0  0  0  0  0  0
   -0.7524   -3.9353    0.0000 C   0  0  0  0  0  0  0  0  0  0  0  0
    0.1362   -2.7267    0.0000 C   0  0  0  0  0  0  0  0  0  0  0  0
    1.6270   -2.8920    0.0000 N   0  0  0  0  0  0  0  0  0  0  0  0
    2.5156   -1.6835    0.0000 C   0  0  0  0  0  0  0  0  0  0  0  0
    4.0065   -1.8487    0.0000 O   0  0  0  0  0  0  0  0  0  0  0  0
    1.9133   -0.3097    0.0000 C   0  0  0  0  0  0  0  0  0  0  0  0
    2.6706    0.9850    0.0000 C   0  0  0  0  0  0  0  0  0  0  0  0
    4.1396    1.2886    0.0000 C   0  0  0  0  0  0  0  0  0  0  0  0
    4.6112    2.7125    0.0000 C   0  0  0  0  0  0  0  0  0  0  0  0
    3.6138    3.8329    0.0000 C   0  0  0  0  0  0  0  0  0  0  0  0
    2.1449    3.5294    0.0000 N   0  0  0  0  0  0  0  0  0  0  0  0
    1.6733    2.1054    0.0000 C   0  0  0  0  0  0  0  0  0  0  0  0
    0.2995    1.5031    0.0000 N   0  0  0  0  0  0  0  0  0  0  0  0
   -0.9953    2.2605    0.0000 C   0  0  0  0  0  0  0  0  0  0  0  0
   -0.9868    3.7604    0.0000 C   0  0  0  0  0  0  0  0  0  0  0  0
   -2.2815    4.5178    0.0000 C   0  0  0  0  0  0  0  0  0  0  0  0
   -3.5848    3.7752    0.0000 C   0  0  0  0  0  0  0  0  0  0  0  0
   -3.5933    2.2752    0.0000 C   0  0  0  0  0  0  0  0  0  0  0  0
   -2.2985    1.5178    0.0000 C   0  0  0  0  0  0  0  0  0  0  0  0
    0.4478    0.0104    0.0000 C   0  0  0  0  0  0  0  0  0  0  0  0
   -0.6726   -0.9869    0.0000 C   0  0  0  0  0  0  0  0  0  0  0  0
   -2.0965   -0.5153    0.0000 C   0  0  0  0  0  0  0  0  0  0  0  0
   -2.4000    0.9537    0.0000 C   0  0  0  0  0  0  0  0  0  0  0  0
   -3.8240    1.4253    0.0000 C   0  0  0  0  0  0  0  0  0  0  0  0
   -4.9444    0.4279    0.0000 C   0  0  0  0  0  0  0  0  0  0  0  0
   -4.6408   -1.0410    0.0000 C   0  0  0  0  0  0  0  0  0  0  0  0
   -3.2169   -1.5127    0.0000 C   0  0  0  0  0  0  0  0  0  0  0  0
   -2.9133   -2.9816    0.0000 C   0  0  0  0  0  0  0  0  0  0  0  0
   -5.7612   -2.0384    0.0000 F   0  0  0  0  0  0  0  0  0  0  0  0
    5.1369    0.1682    0.0000 C   0  0  0  0  0  0  0  0  0  0  0  0
    6.6059    0.4717    0.0000 C   0  0  0  0  0  0  0  0  0  0  0  0
  1  2  1  0
  1  6  1  0
  2  3  1  0
  3  4  1  0
  4  5  1  0
  5  6  1  0
  6  7  1  0
  7  8  2  0
  7  9  1  0
  9 10  1  0
  9 23  2  0
 10 11  2  0
 10 15  1  0
 11 12  1  0
 11 33  1  0
 12 13  2  0
 13 14  1  0
 14 15  2  0
 15 16  1  0
 16 17  1  0
 16 23  1  0
 17 18  2  0
 17 22  1  0
 18 19  1  0
 19 20  2  0
 20 21  1  0
 21 22  2  0
 23 24  1  0
 24 25  1  0
 25 26  2  0
 25 30  1  0
 26 27  1  0
 27 28  2  0
 28 29  1  0
 29 30  2  0
 29 32  1  0
 30 31  1  0
 33 34  1  0
M  END
>  <EXTREG>  (58) 
b3a4g

>  <ID>  (58) 
b3a4g

>  <RENIN_IC50>  (58) 
0.0890

>  <ORIGIN>  (58) 
BMCL2011B

>  <RENIN_PIC50>  (58) 
7.0506

>  <TRAIN>  (58) 
train

>  <TRAIN_CLASS>  (58) 
0

$$$$
b1a2m
     RDKit          2D

 30 34  0  0  0  0  0  0  0  0999 V2000
    4.8318   -1.2466    0.0000 C   0  0  0  0  0  0  0  0  0  0  0  0
    5.1270   -2.7172    0.0000 C   0  0  0  0  0  0  0  0  0  0  0  0
    4.0010   -3.7083    0.0000 N   0  0  0  0  0  0  0  0  0  0  0  0
    2.5798   -3.2286    0.0000 C   0  0  0  0  0  0  0  0  0  0  0  0
    2.2845   -1.7580    0.0000 C   0  0  0  0  0  0  0  0  0  0  0  0
    3.4105   -0.7669    0.0000 N   0  0  0  0  0  0  0  0  0  0  0  0
    3.1153    0.7037    0.0000 C   0  0  0  0  0  0  0  0  0  0  0  0
    4.2413    1.6947    0.0000 O   0  0  0  0  0  0  0  0  0  0  0  0
    1.6940    1.1834    0.0000 C   0  0  0  0  0  0  0  0  0  0  0  0
    1.2467    2.6151    0.0000 C   0  0  0  0  0  0  0  0  0  0  0  0
    2.0113    3.9056    0.0000 C   0  0  0  0  0  0  0  0  0  0  0  0
    1.2761    5.2130    0.0000 C   0  0  0  0  0  0  0  0  0  0  0  0
   -0.2238    5.2300    0.0000 C   0  0  0  0  0  0  0  0  0  0  0  0
   -0.9885    3.9395    0.0000 C   0  0  0  0  0  0  0  0  0  0  0  0
   -0.2532    2.6321    0.0000 C   0  0  0  0  0  0  0  0  0  0  0  0
   -0.7329    1.2108    0.0000 N   0  0  0  0  0  0  0  0  0  0  0  0
   -2.1646    0.7634    0.0000 C   0  0  0  0  0  0  0  0  0  0  0  0
   -2.4930   -0.7002    0.0000 C   0  0  0  0  0  0  0  0  0  0  0  0
   -3.9248   -1.1475    0.0000 C   0  0  0  0  0  0  0  0  0  0  0  0
   -5.0281   -0.1313    0.0000 C   0  0  0  0  0  0  0  0  0  0  0  0
   -4.6996    1.3323    0.0000 C   0  0  0  0  0  0  0  0  0  0  0  0
   -3.2679    1.7797    0.0000 C   0  0  0  0  0  0  0  0  0  0  0  0
    0.4706    0.3155    0.0000 C   0  0  0  0  0  0  0  0  0  0  0  0
    0.4537   -1.1844    0.0000 C   0  0  0  0  0  0  0  0  0  0  0  0
   -0.8538   -1.9197    0.0000 C   0  0  0  0  0  0  0  0  0  0  0  0
   -0.8708   -3.4196    0.0000 C   0  0  0  0  0  0  0  0  0  0  0  0
   -2.1782   -4.1549    0.0000 C   0  0  0  0  0  0  0  0  0  0  0  0
   -3.4687   -3.3902    0.0000 C   0  0  0  0  0  0  0  0  0  0  0  0
   -3.4517   -1.8903    0.0000 C   0  0  0  0  0  0  0  0  0  0  0  0
   -2.1443   -1.1551    0.0000 C   0  0  0  0  0  0  0  0  0  0  0  0
  1  2  1  0
  1  6  1  0
  2  3  1  0
  3  4  1  0
  4  5  1  0
  5  6  1  0
  6  7  1  0
  7  8  2  0
  7  9  1  0
  9 10  1  0
  9 23  2  0
 10 11  2  0
 10 15  1  0
 11 12  1  0
 12 13  2  0
 13 14  1  0
 14 15  2  0
 15 16  1  0
 16 17  1  0
 16 23  1  0
 17 18  2  0
 17 22  1  0
 18 19  1  0
 19 20  2  0
 20 21  1  0
 21 22  2  0
 23 24  1  0
 24 25  1  0
 25 26  2  0
 25 30  1  0
 26 27  1  0
 27 28  2  0
 28 29  1  0
 29 30  2  0
M  END
>  <EXTREG>  (59) 
b1a2m

>  <ID>  (59) 
b1a2m

>  <RENIN_IC50>  (59) 
0.0910

>  <COMMENT>  (59) 
XRAY 3oqf 2.78 A

>  <ORIGIN>  (59) 
BMCL2010

>  <RENIN_PIC50>  (59) 
7.0410

>  <TRAIN>  (59) 
train

>  <TRAIN_CLASS>  (59) 
0

$$$$
b3a3b
     RDKit          2D

 31 35  0  0  0  0  0  0  0  0999 V2000
   -4.8712    0.8500    0.0000 C   0  0  0  0  0  0  0  0  0  0  0  0
   -5.2454    2.3026    0.0000 C   0  0  0  0  0  0  0  0  0  0  0  0
   -4.1745    3.3529    0.0000 N   0  0  0  0  0  0  0  0  0  0  0  0
   -2.7294    2.9507    0.0000 C   0  0  0  0  0  0  0  0  0  0  0  0
   -2.3553    1.4981    0.0000 C   0  0  0  0  0  0  0  0  0  0  0  0
   -3.4262    0.4478    0.0000 N   0  0  0  0  0  0  0  0  0  0  0  0
   -3.0520   -1.0048    0.0000 C   0  0  0  0  0  0  0  0  0  0  0  0
   -4.1229   -2.0552    0.0000 O   0  0  0  0  0  0  0  0  0  0  0  0
   -1.6069   -1.4071    0.0000 C   0  0  0  0  0  0  0  0  0  0  0  0
   -1.0830   -2.8126    0.0000 C   0  0  0  0  0  0  0  0  0  0  0  0
   -1.7769   -4.1424    0.0000 C   0  0  0  0  0  0  0  0  0  0  0  0
   -0.9722   -5.4083    0.0000 C   0  0  0  0  0  0  0  0  0  0  0  0
    0.5265   -5.3443    0.0000 C   0  0  0  0  0  0  0  0  0  0  0  0
    1.2204   -4.0145    0.0000 N   0  0  0  0  0  0  0  0  0  0  0  0
    0.4157   -2.7486    0.0000 C   0  0  0  0  0  0  0  0  0  0  0  0
    0.8179   -1.3036    0.0000 N   0  0  0  0  0  0  0  0  0  0  0  0
    2.2234   -0.7796    0.0000 C   0  0  0  0  0  0  0  0  0  0  0  0
    3.3799   -1.7348    0.0000 C   0  0  0  0  0  0  0  0  0  0  0  0
    4.7855   -1.2109    0.0000 C   0  0  0  0  0  0  0  0  0  0  0  0
    5.0345    0.2683    0.0000 C   0  0  0  0  0  0  0  0  0  0  0  0
    3.8779    1.2235    0.0000 C   0  0  0  0  0  0  0  0  0  0  0  0
    2.4724    0.6996    0.0000 C   0  0  0  0  0  0  0  0  0  0  0  0
   -0.4321   -0.4744    0.0000 C   0  0  0  0  0  0  0  0  0  0  0  0
   -0.4961    1.0242    0.0000 O   0  0  0  0  0  0  0  0  0  0  0  0
    0.7698    1.8289    0.0000 C   0  0  0  0  0  0  0  0  0  0  0  0
    2.0996    1.1350    0.0000 C   0  0  0  0  0  0  0  0  0  0  0  0
    3.3655    1.9397    0.0000 C   0  0  0  0  0  0  0  0  0  0  0  0
    3.3015    3.4384    0.0000 C   0  0  0  0  0  0  0  0  0  0  0  0
    1.9717    4.1323    0.0000 C   0  0  0  0  0  0  0  0  0  0  0  0
    0.7058    3.3276    0.0000 C   0  0  0  0  0  0  0  0  0  0  0  0
   -0.6241    4.0215    0.0000 C   0  0  0  0  0  0  0  0  0  0  0  0
  1  2  1  0
  1  6  1  0
  2  3  1  0
  3  4  1  0
  4  5  1  0
  5  6  1  0
  6  7  1  0
  7  8  2  0
  7  9  1  0
  9 10  1  0
  9 23  2  0
 10 11  2  0
 10 15  1  0
 11 12  1  0
 12 13  2  0
 13 14  1  0
 14 15  2  0
 15 16  1  0
 16 17  1  0
 16 23  1  0
 17 18  2  0
 17 22  1  0
 18 19  1  0
 19 20  2  0
 20 21  1  0
 21 22  2  0
 23 24  1  0
 24 25  1  0
 25 26  2  0
 25 30  1  0
 26 27  1  0
 27 28  2  0
 28 29  1  0
 29 30  2  0
 30 31  1  0
M  END
>  <EXTREG>  (60) 
b3a3b

>  <ID>  (60) 
b3a3b

>  <RENIN_IC50>  (60) 
0.0980

>  <ORIGIN>  (60) 
BMCL2011B

>  <RENIN_PIC50>  (60) 
7.0088

>  <TRAIN>  (60) 
train

>  <TRAIN_CLASS>  (60) 
0

$$$$
b3a6i
     RDKit          2D

 34 38  0  0  0  0  0  0  0  0999 V2000
   -0.6753   -5.0735    0.0000 C   0  0  0  0  0  0  0  0  0  0  0  0
   -2.1109   -5.5084    0.0000 C   0  0  0  0  0  0  0  0  0  0  0  0
   -3.2052   -4.4826    0.0000 N   0  0  0  0  0  0  0  0  0  0  0  0
   -2.8640   -3.0219    0.0000 C   0  0  0  0  0  0  0  0  0  0  0  0
   -1.4284   -2.5870    0.0000 C   0  0  0  0  0  0  0  0  0  0  0  0
   -0.3341   -3.6129    0.0000 N   0  0  0  0  0  0  0  0  0  0  0  0
    1.1015   -3.1780    0.0000 C   0  0  0  0  0  0  0  0  0  0  0  0
    2.1959   -4.2039    0.0000 O   0  0  0  0  0  0  0  0  0  0  0  0
    1.4427   -1.7174    0.0000 C   0  0  0  0  0  0  0  0  0  0  0  0
    2.8250   -1.1348    0.0000 C   0  0  0  0  0  0  0  0  0  0  0  0
    4.1828   -1.7723    0.0000 C   0  0  0  0  0  0  0  0  0  0  0  0
    5.4138   -0.9151    0.0000 N   0  0  0  0  0  0  0  0  0  0  0  0
    5.2869    0.5795    0.0000 C   0  0  0  0  0  0  0  0  0  0  0  0
    3.9291    1.2170    0.0000 C   0  0  0  0  0  0  0  0  0  0  0  0
    2.6981    0.3598    0.0000 C   0  0  0  0  0  0  0  0  0  0  0  0
    1.2375    0.7010    0.0000 N   0  0  0  0  0  0  0  0  0  0  0  0
    0.6550    2.0833    0.0000 C   0  0  0  0  0  0  0  0  0  0  0  0
   -0.8334    2.2699    0.0000 C   0  0  0  0  0  0  0  0  0  0  0  0
   -1.4159    3.6522    0.0000 C   0  0  0  0  0  0  0  0  0  0  0  0
   -0.5101    4.8478    0.0000 C   0  0  0  0  0  0  0  0  0  0  0  0
    0.9783    4.6611    0.0000 C   0  0  0  0  0  0  0  0  0  0  0  0
    1.5608    3.2789    0.0000 C   0  0  0  0  0  0  0  0  0  0  0  0
    0.4616   -0.5827    0.0000 C   0  0  0  0  0  0  0  0  0  0  0  0
   -1.0330   -0.7096    0.0000 O   0  0  0  0  0  0  0  0  0  0  0  0
   -1.8902    0.5213    0.0000 C   0  0  0  0  0  0  0  0  0  0  0  0
   -1.2528    1.8792    0.0000 C   0  0  0  0  0  0  0  0  0  0  0  0
   -2.1099    3.1101    0.0000 C   0  0  0  0  0  0  0  0  0  0  0  0
   -3.6046    2.9833    0.0000 C   0  0  0  0  0  0  0  0  0  0  0  0
   -4.2420    1.6254    0.0000 C   0  0  0  0  0  0  0  0  0  0  0  0
   -3.3848    0.3945    0.0000 C   0  0  0  0  0  0  0  0  0  0  0  0
   -4.0223   -0.9633    0.0000 C   0  0  0  0  0  0  0  0  0  0  0  0
   -5.7366    1.4986    0.0000 F   0  0  0  0  0  0  0  0  0  0  0  0
    0.1667    2.3639    0.0000 C   0  0  0  0  0  0  0  0  0  0  0  0
    6.5179    1.4367    0.0000 O   0  0  0  0  0  0  0  0  0  0  0  0
  1  2  1  0
  1  6  1  0
  2  3  1  0
  3  4  1  0
  4  5  1  0
  5  6  1  0
  6  7  1  0
  7  8  2  0
  7  9  1  0
  9 10  1  0
  9 23  2  0
 10 11  2  0
 10 15  1  0
 11 12  1  0
 12 13  1  0
 13 14  1  0
 13 34  2  0
 14 15  2  0
 15 16  1  0
 16 17  1  0
 16 23  1  0
 17 18  1  0
 17 22  1  0
 18 19  1  0
 19 20  1  0
 20 21  1  0
 21 22  1  0
 23 24  1  0
 24 25  1  0
 25 26  2  0
 25 30  1  0
 26 27  1  0
 26 33  1  0
 27 28  2  0
 28 29  1  0
 29 30  2  0
 29 32  1  0
 30 31  1  0
M  END
>  <EXTREG>  (61) 
b3a6i

>  <ID>  (61) 
b3a6i

>  <RENIN_IC50>  (61) 
0.0980

>  <ORIGIN>  (61) 
BMCL2011B

>  <RENIN_PIC50>  (61) 
7.0088

>  <TRAIN>  (61) 
train

>  <TRAIN_CLASS>  (61) 
0

$$$$
b3a6g
     RDKit          2D

 34 38  0  0  0  0  0  0  0  0999 V2000
   -2.2424   -4.6542    0.0000 C   0  0  0  0  0  0  0  0  0  0  0  0
   -3.7401   -4.7364    0.0000 C   0  0  0  0  0  0  0  0  0  0  0  0
   -4.5602   -3.4805    0.0000 N   0  0  0  0  0  0  0  0  0  0  0  0
   -3.8826   -2.1423    0.0000 C   0  0  0  0  0  0  0  0  0  0  0  0
   -2.3849   -2.0600    0.0000 C   0  0  0  0  0  0  0  0  0  0  0  0
   -1.5648   -3.3160    0.0000 N   0  0  0  0  0  0  0  0  0  0  0  0
   -0.0670   -3.2337    0.0000 C   0  0  0  0  0  0  0  0  0  0  0  0
    0.7531   -4.4896    0.0000 O   0  0  0  0  0  0  0  0  0  0  0  0
    0.6106   -1.8955    0.0000 C   0  0  0  0  0  0  0  0  0  0  0  0
    2.0915   -1.6571    0.0000 C   0  0  0  0  0  0  0  0  0  0  0  0
    3.2596   -2.5981    0.0000 C   0  0  0  0  0  0  0  0  0  0  0  0
    4.6586   -2.0571    0.0000 N   0  0  0  0  0  0  0  0  0  0  0  0
    4.8896   -0.5750    0.0000 C   0  0  0  0  0  0  0  0  0  0  0  0
    3.7215    0.3661    0.0000 C   0  0  0  0  0  0  0  0  0  0  0  0
    2.3225   -0.1750    0.0000 C   0  0  0  0  0  0  0  0  0  0  0  0
    0.9843    0.5026    0.0000 N   0  0  0  0  0  0  0  0  0  0  0  0
    0.7459    1.9836    0.0000 C   0  0  0  0  0  0  0  0  0  0  0  0
   -0.6558    2.5176    0.0000 C   0  0  0  0  0  0  0  0  0  0  0  0
   -0.8942    3.9986    0.0000 C   0  0  0  0  0  0  0  0  0  0  0  0
    0.2691    4.9455    0.0000 C   0  0  0  0  0  0  0  0  0  0  0  0
    1.6708    4.4114    0.0000 C   0  0  0  0  0  0  0  0  0  0  0  0
    1.9092    2.9305    0.0000 C   0  0  0  0  0  0  0  0  0  0  0  0
   -0.0737   -0.5607    0.0000 C   0  0  0  0  0  0  0  0  0  0  0  0
   -1.5559   -0.3297    0.0000 O   0  0  0  0  0  0  0  0  0  0  0  0
   -2.0969    1.0693    0.0000 C   0  0  0  0  0  0  0  0  0  0  0  0
   -3.5790    1.3002    0.0000 C   0  0  0  0  0  0  0  0  0  0  0  0
   -4.1201    2.6992    0.0000 C   0  0  0  0  0  0  0  0  0  0  0  0
   -3.1791    3.8673    0.0000 C   0  0  0  0  0  0  0  0  0  0  0  0
   -1.6969    3.6364    0.0000 C   0  0  0  0  0  0  0  0  0  0  0  0
   -1.1559    2.2374    0.0000 C   0  0  0  0  0  0  0  0  0  0  0  0
    0.3381    2.3719    0.0000 C   0  0  0  0  0  0  0  0  0  0  0  0
   -4.5201    0.1321    0.0000 C   0  0  0  0  0  0  0  0  0  0  0  0
    6.2886   -0.0339    0.0000 O   0  0  0  0  0  0  0  0  0  0  0  0
    7.4567   -0.9749    0.0000 C   0  0  0  0  0  0  0  0  0  0  0  0
  1  2  1  0
  1  6  1  0
  2  3  1  0
  3  4  1  0
  4  5  1  0
  5  6  1  0
  6  7  1  0
  7  8  2  0
  7  9  1  0
  9 10  1  0
  9 23  2  0
 10 11  2  0
 10 15  1  0
 11 12  1  0
 12 13  2  0
 13 14  1  0
 13 33  1  0
 14 15  2  0
 15 16  1  0
 16 17  1  0
 16 23  1  0
 17 18  1  0
 17 22  1  0
 18 19  1  0
 19 20  1  0
 20 21  1  0
 21 22  1  0
 23 24  1  0
 24 25  1  0
 25 26  2  0
 25 30  1  0
 26 27  1  0
 26 32  1  0
 27 28  2  0
 28 29  1  0
 29 30  2  0
 30 31  1  0
 33 34  1  0
M  END
>  <EXTREG>  (62) 
b3a6g

>  <ID>  (62) 
b3a6g

>  <RENIN_IC50>  (62) 
0.0990

>  <ORIGIN>  (62) 
BMCL2011B

>  <RENIN_PIC50>  (62) 
7.0044

>  <TRAIN>  (62) 
train

>  <TRAIN_CLASS>  (62) 
0

$$$$
b3a5h
     RDKit          2D

 32 36  0  0  0  0  0  0  0  0999 V2000
   -4.9661    0.7617    0.0000 C   0  0  0  0  0  0  0  0  0  0  0  0
   -5.3688    2.2066    0.0000 C   0  0  0  0  0  0  0  0  0  0  0  0
   -4.3188    3.2779    0.0000 N   0  0  0  0  0  0  0  0  0  0  0  0
   -2.8661    2.9042    0.0000 C   0  0  0  0  0  0  0  0  0  0  0  0
   -2.4634    1.4593    0.0000 C   0  0  0  0  0  0  0  0  0  0  0  0
   -3.5134    0.3880    0.0000 N   0  0  0  0  0  0  0  0  0  0  0  0
   -3.1106   -1.0569    0.0000 C   0  0  0  0  0  0  0  0  0  0  0  0
   -4.1606   -2.1281    0.0000 O   0  0  0  0  0  0  0  0  0  0  0  0
   -1.6579   -1.4306    0.0000 C   0  0  0  0  0  0  0  0  0  0  0  0
   -1.1064   -2.8255    0.0000 C   0  0  0  0  0  0  0  0  0  0  0  0
   -1.7739   -4.1687    0.0000 C   0  0  0  0  0  0  0  0  0  0  0  0
   -0.9444   -5.4185    0.0000 N   0  0  0  0  0  0  0  0  0  0  0  0
    0.5527   -5.3250    0.0000 C   0  0  0  0  0  0  0  0  0  0  0  0
    1.2203   -3.9817    0.0000 C   0  0  0  0  0  0  0  0  0  0  0  0
    0.3907   -2.7319    0.0000 C   0  0  0  0  0  0  0  0  0  0  0  0
    0.7644   -1.2792    0.0000 N   0  0  0  0  0  0  0  0  0  0  0  0
    2.1593   -0.7277    0.0000 C   0  0  0  0  0  0  0  0  0  0  0  0
    2.3791    0.7561    0.0000 C   0  0  0  0  0  0  0  0  0  0  0  0
    3.7740    1.3077    0.0000 C   0  0  0  0  0  0  0  0  0  0  0  0
    4.9491    0.3755    0.0000 C   0  0  0  0  0  0  0  0  0  0  0  0
    4.7294   -1.1083    0.0000 C   0  0  0  0  0  0  0  0  0  0  0  0
    3.3344   -1.6599    0.0000 C   0  0  0  0  0  0  0  0  0  0  0  0
   -0.5017   -0.4749    0.0000 C   0  0  0  0  0  0  0  0  0  0  0  0
   -0.5953    1.0221    0.0000 C   0  0  0  0  0  0  0  0  0  0  0  0
    0.6545    1.8517    0.0000 C   0  0  0  0  0  0  0  0  0  0  0  0
    0.5610    3.3488    0.0000 C   0  0  0  0  0  0  0  0  0  0  0  0
    1.8107    4.1783    0.0000 C   0  0  0  0  0  0  0  0  0  0  0  0
    3.1540    3.5107    0.0000 C   0  0  0  0  0  0  0  0  0  0  0  0
    3.2475    2.0137    0.0000 C   0  0  0  0  0  0  0  0  0  0  0  0
    1.9978    1.1841    0.0000 C   0  0  0  0  0  0  0  0  0  0  0  0
    2.4508   -0.2458    0.0000 Cl  0  0  0  0  0  0  0  0  0  0  0  0
   -0.7823    4.0163    0.0000 F   0  0  0  0  0  0  0  0  0  0  0  0
  1  2  1  0
  1  6  1  0
  2  3  1  0
  3  4  1  0
  4  5  1  0
  5  6  1  0
  6  7  1  0
  7  8  2  0
  7  9  1  0
  9 10  1  0
  9 23  2  0
 10 11  2  0
 10 15  1  0
 11 12  1  0
 12 13  2  0
 13 14  1  0
 14 15  2  0
 15 16  1  0
 16 17  1  0
 16 23  1  0
 17 18  2  0
 17 22  1  0
 18 19  1  0
 19 20  2  0
 20 21  1  0
 21 22  2  0
 23 24  1  0
 24 25  1  0
 25 26  2  0
 25 30  1  0
 26 27  1  0
 26 32  1  0
 27 28  2  0
 28 29  1  0
 29 30  2  0
 30 31  1  0
M  END
>  <EXTREG>  (63) 
b3a5h

>  <ID>  (63) 
b3a5h

>  <RENIN_IC50>  (63) 
0.1000

>  <ORIGIN>  (63) 
BMCL2011B

>  <RENIN_PIC50>  (63) 
7.0000

>  <TRAIN>  (63) 
train

>  <TRAIN_CLASS>  (63) 
0

$$$$
b2a3kr
     RDKit          2D

 33 37  0  0  0  0  0  0  0  0999 V2000
    4.2855   -2.7864    0.0000 C   0  0  0  0  0  0  0  0  0  0  0  0
    3.9896   -4.2570    0.0000 C   0  0  0  0  0  0  0  0  0  0  0  0
    2.5682   -4.7360    0.0000 N   0  0  0  0  0  0  0  0  0  0  0  0
    1.4426   -3.7445    0.0000 C   0  0  0  0  0  0  0  0  0  0  0  0
    1.7385   -2.2739    0.0000 C   0  0  0  0  0  0  0  0  0  0  0  0
    3.1599   -1.7949    0.0000 N   0  0  0  0  0  0  0  0  0  0  0  0
    3.4558   -0.3244    0.0000 C   0  0  0  0  0  0  0  0  0  0  0  0
    4.8773    0.1546    0.0000 O   0  0  0  0  0  0  0  0  0  0  0  0
    2.3302    0.6671    0.0000 C   0  0  0  0  0  0  0  0  0  0  0  0
    2.4708    2.1605    0.0000 C   0  0  0  0  0  0  0  0  0  0  0  0
    3.6746    3.0553    0.0000 N   0  0  0  0  0  0  0  0  0  0  0  0
    3.5016    4.5453    0.0000 C   0  0  0  0  0  0  0  0  0  0  0  0
    2.1247    5.1405    0.0000 C   0  0  0  0  0  0  0  0  0  0  0  0
    0.9209    4.2457    0.0000 C   0  0  0  0  0  0  0  0  0  0  0  0
    1.0939    2.7557    0.0000 C   0  0  0  0  0  0  0  0  0  0  0  0
    0.1024    1.6301    0.0000 N   0  0  0  0  0  0  0  0  0  0  0  0
   -1.3910    1.7706    0.0000 C   0  0  0  0  0  0  0  0  0  0  0  0
   -2.0160    3.1342    0.0000 C   0  0  0  0  0  0  0  0  0  0  0  0
   -3.5094    3.2748    0.0000 C   0  0  0  0  0  0  0  0  0  0  0  0
   -4.3778    2.0517    0.0000 C   0  0  0  0  0  0  0  0  0  0  0  0
   -3.7528    0.6881    0.0000 C   0  0  0  0  0  0  0  0  0  0  0  0
   -2.2594    0.5476    0.0000 C   0  0  0  0  0  0  0  0  0  0  0  0
    0.8665    0.3393    0.0000 C   0  0  0  0  0  0  0  0  0  0  0  0
    0.2713   -1.0376    0.0000 O   0  0  0  0  0  0  0  0  0  0  0  0
   -1.2186   -1.2106    0.0000 C   0  0  0  0  0  0  0  0  0  0  0  0
   -2.1135   -0.0068    0.0000 C   0  0  0  0  0  0  0  0  0  0  0  0
   -3.6035   -0.1798    0.0000 C   0  0  0  0  0  0  0  0  0  0  0  0
   -4.1986   -1.5567    0.0000 C   0  0  0  0  0  0  0  0  0  0  0  0
   -3.3038   -2.7605    0.0000 C   0  0  0  0  0  0  0  0  0  0  0  0
   -1.8138   -2.5875    0.0000 C   0  0  0  0  0  0  0  0  0  0  0  0
   -0.9190   -3.7913    0.0000 C   0  0  0  0  0  0  0  0  0  0  0  0
   -3.8989   -4.1374    0.0000 F   0  0  0  0  0  0  0  0  0  0  0  0
   -4.4983    1.0241    0.0000 F   0  0  0  0  0  0  0  0  0  0  0  0
  1  2  1  0
  1  6  1  0
  2  3  1  0
  3  4  1  0
  4  5  1  0
  5  6  1  0
  6  7  1  0
  7  8  2  0
  7  9  1  0
  9 10  1  0
  9 23  2  0
 10 11  2  0
 10 15  1  0
 11 12  1  0
 12 13  2  0
 13 14  1  0
 14 15  2  0
 15 16  1  0
 16 17  1  0
 16 23  1  0
 17 18  2  0
 17 22  1  0
 18 19  1  0
 19 20  2  0
 20 21  1  0
 21 22  2  0
 23 24  1  0
 24 25  1  0
 25 26  2  0
 25 30  1  0
 26 27  1  0
 27 28  2  0
 27 33  1  0
 28 29  1  0
 29 30  2  0
 29 32  1  0
 30 31  1  0
M  END
>  <EXTREG>  (64) 
b2a3kr

>  <ID>  (64) 
b2a3kr

>  <RENIN_IC50>  (64) 
0.1070

>  <ORIGIN>  (64) 
BMCL2011A

>  <RENIN_PIC50>  (64) 
6.9706

>  <TRAIN>  (64) 
test

>  <TRAIN_CLASS>  (64) 
1

$$$$
b2a5f
     RDKit          2D

 37 41  0  0  0  0  0  0  0  0999 V2000
   -2.8824   -4.7066    0.0000 C   0  0  0  0  0  0  0  0  0  0  0  0
   -4.3776   -4.8260    0.0000 C   0  0  0  0  0  0  0  0  0  0  0  0
   -5.2286   -3.5907    0.0000 N   0  0  0  0  0  0  0  0  0  0  0  0
   -4.5844   -2.2361    0.0000 C   0  0  0  0  0  0  0  0  0  0  0  0
   -3.0892   -2.1167    0.0000 C   0  0  0  0  0  0  0  0  0  0  0  0
   -2.2382   -3.3519    0.0000 N   0  0  0  0  0  0  0  0  0  0  0  0
   -0.7429   -3.2326    0.0000 C   0  0  0  0  0  0  0  0  0  0  0  0
    0.1081   -4.4678    0.0000 O   0  0  0  0  0  0  0  0  0  0  0  0
   -0.0987   -1.8779    0.0000 C   0  0  0  0  0  0  0  0  0  0  0  0
    1.3759   -1.6029    0.0000 C   0  0  0  0  0  0  0  0  0  0  0  0
    2.5670   -2.5147    0.0000 N   0  0  0  0  0  0  0  0  0  0  0  0
    3.9521   -1.9391    0.0000 C   0  0  0  0  0  0  0  0  0  0  0  0
    4.1462   -0.4517    0.0000 C   0  0  0  0  0  0  0  0  0  0  0  0
    2.9551    0.4601    0.0000 C   0  0  0  0  0  0  0  0  0  0  0  0
    1.5700   -0.1155    0.0000 C   0  0  0  0  0  0  0  0  0  0  0  0
    0.2154    0.5287    0.0000 N   0  0  0  0  0  0  0  0  0  0  0  0
   -0.0597    2.0033    0.0000 C   0  0  0  0  0  0  0  0  0  0  0  0
   -1.4742    2.5024    0.0000 C   0  0  0  0  0  0  0  0  0  0  0  0
   -1.7492    3.9769    0.0000 C   0  0  0  0  0  0  0  0  0  0  0  0
   -0.6097    4.9524    0.0000 C   0  0  0  0  0  0  0  0  0  0  0  0
    0.8048    4.4533    0.0000 C   0  0  0  0  0  0  0  0  0  0  0  0
    1.0798    2.9787    0.0000 C   0  0  0  0  0  0  0  0  0  0  0  0
   -0.8159   -0.5605    0.0000 C   0  0  0  0  0  0  0  0  0  0  0  0
   -2.3033   -0.3664    0.0000 O   0  0  0  0  0  0  0  0  0  0  0  0
   -2.8789    1.0187    0.0000 C   0  0  0  0  0  0  0  0  0  0  0  0
   -4.3663    1.2128    0.0000 C   0  0  0  0  0  0  0  0  0  0  0  0
   -4.9419    2.5980    0.0000 C   0  0  0  0  0  0  0  0  0  0  0  0
   -4.0301    3.7891    0.0000 C   0  0  0  0  0  0  0  0  0  0  0  0
   -2.5427    3.5950    0.0000 C   0  0  0  0  0  0  0  0  0  0  0  0
   -1.9671    2.2098    0.0000 C   0  0  0  0  0  0  0  0  0  0  0  0
   -0.4770    2.3814    0.0000 C   0  0  0  0  0  0  0  0  0  0  0  0
   -5.2781    0.0218    0.0000 C   0  0  0  0  0  0  0  0  0  0  0  0
    5.5314    0.1239    0.0000 O   0  0  0  0  0  0  0  0  0  0  0  0
    6.7224   -0.7879    0.0000 C   0  0  0  0  0  0  0  0  0  0  0  0
    8.1076   -0.2123    0.0000 C   0  0  0  0  0  0  0  0  0  0  0  0
    9.2987   -1.1241    0.0000 O   0  0  0  0  0  0  0  0  0  0  0  0
    8.3017    1.2751    0.0000 O   0  0  0  0  0  0  0  0  0  0  0  0
  1  2  1  0
  1  6  1  0
  2  3  1  0
  3  4  1  0
  4  5  1  0
  5  6  1  0
  6  7  1  0
  7  8  2  0
  7  9  1  0
  9 10  1  0
  9 23  2  0
 10 11  2  0
 10 15  1  0
 11 12  1  0
 12 13  2  0
 13 14  1  0
 13 33  1  0
 14 15  2  0
 15 16  1  0
 16 17  1  0
 16 23  1  0
 17 18  2  0
 17 22  1  0
 18 19  1  0
 19 20  2  0
 20 21  1  0
 21 22  2  0
 23 24  1  0
 24 25  1  0
 25 26  2  0
 25 30  1  0
 26 27  1  0
 26 32  1  0
 27 28  2  0
 28 29  1  0
 29 30  2  0
 30 31  1  0
 33 34  1  0
 34 35  1  0
 35 36  1  0
 35 37  2  0
M  END
>  <EXTREG>  (65) 
b2a5f

>  <ID>  (65) 
b2a5f

>  <RENIN_IC50>  (65) 
0.1100

>  <ORIGIN>  (65) 
BMCL2011A

>  <RENIN_PIC50>  (65) 
6.9586

>  <TRAIN>  (65) 
train

>  <TRAIN_CLASS>  (65) 
0

$$$$
b2a6c
     RDKit          2D

 32 36  0  0  0  0  0  0  0  0999 V2000
   -4.9661    0.7617    0.0000 C   0  0  0  0  0  0  0  0  0  0  0  0
   -5.3688    2.2066    0.0000 C   0  0  0  0  0  0  0  0  0  0  0  0
   -4.3188    3.2779    0.0000 N   0  0  0  0  0  0  0  0  0  0  0  0
   -2.8661    2.9042    0.0000 C   0  0  0  0  0  0  0  0  0  0  0  0
   -2.4634    1.4593    0.0000 C   0  0  0  0  0  0  0  0  0  0  0  0
   -3.5134    0.3880    0.0000 N   0  0  0  0  0  0  0  0  0  0  0  0
   -3.1106   -1.0569    0.0000 C   0  0  0  0  0  0  0  0  0  0  0  0
   -4.1606   -2.1281    0.0000 O   0  0  0  0  0  0  0  0  0  0  0  0
   -1.6579   -1.4306    0.0000 C   0  0  0  0  0  0  0  0  0  0  0  0
   -1.1064   -2.8255    0.0000 C   0  0  0  0  0  0  0  0  0  0  0  0
   -1.7739   -4.1687    0.0000 C   0  0  0  0  0  0  0  0  0  0  0  0
   -0.9444   -5.4185    0.0000 C   0  0  0  0  0  0  0  0  0  0  0  0
    0.5527   -5.3250    0.0000 N   0  0  0  0  0  0  0  0  0  0  0  0
    1.2203   -3.9817    0.0000 C   0  0  0  0  0  0  0  0  0  0  0  0
    0.3907   -2.7319    0.0000 C   0  0  0  0  0  0  0  0  0  0  0  0
    0.7644   -1.2792    0.0000 N   0  0  0  0  0  0  0  0  0  0  0  0
    2.1593   -0.7277    0.0000 C   0  0  0  0  0  0  0  0  0  0  0  0
    2.3791    0.7561    0.0000 C   0  0  0  0  0  0  0  0  0  0  0  0
    3.7740    1.3077    0.0000 C   0  0  0  0  0  0  0  0  0  0  0  0
    4.9491    0.3755    0.0000 C   0  0  0  0  0  0  0  0  0  0  0  0
    4.7294   -1.1083    0.0000 C   0  0  0  0  0  0  0  0  0  0  0  0
    3.3344   -1.6599    0.0000 C   0  0  0  0  0  0  0  0  0  0  0  0
   -0.5017   -0.4749    0.0000 C   0  0  0  0  0  0  0  0  0  0  0  0
   -0.5953    1.0221    0.0000 O   0  0  0  0  0  0  0  0  0  0  0  0
    0.6545    1.8517    0.0000 C   0  0  0  0  0  0  0  0  0  0  0  0
    0.5610    3.3488    0.0000 C   0  0  0  0  0  0  0  0  0  0  0  0
    1.8107    4.1783    0.0000 C   0  0  0  0  0  0  0  0  0  0  0  0
    3.1540    3.5107    0.0000 C   0  0  0  0  0  0  0  0  0  0  0  0
    3.2475    2.0137    0.0000 C   0  0  0  0  0  0  0  0  0  0  0  0
    1.9978    1.1841    0.0000 C   0  0  0  0  0  0  0  0  0  0  0  0
    2.4508   -0.2458    0.0000 C   0  0  0  0  0  0  0  0  0  0  0  0
   -0.7823    4.0163    0.0000 C   0  0  0  0  0  0  0  0  0  0  0  0
  1  2  1  0
  1  6  1  0
  2  3  1  0
  3  4  1  0
  4  5  1  0
  5  6  1  0
  6  7  1  0
  7  8  2  0
  7  9  1  0
  9 10  1  0
  9 23  2  0
 10 11  2  0
 10 15  1  0
 11 12  1  0
 12 13  2  0
 13 14  1  0
 14 15  2  0
 15 16  1  0
 16 17  1  0
 16 23  1  0
 17 18  2  0
 17 22  1  0
 18 19  1  0
 19 20  2  0
 20 21  1  0
 21 22  2  0
 23 24  1  0
 24 25  1  0
 25 26  2  0
 25 30  1  0
 26 27  1  0
 26 32  1  0
 27 28  2  0
 28 29  1  0
 29 30  2  0
 30 31  1  0
M  END
>  <EXTREG>  (66) 
b2a6c

>  <ID>  (66) 
b2a6c

>  <RENIN_IC50>  (66) 
0.1120

>  <ORIGIN>  (66) 
BMCL2011A

>  <RENIN_PIC50>  (66) 
6.9508

>  <TRAIN>  (66) 
test

>  <TRAIN_CLASS>  (66) 
1

$$$$
b3a6e
     RDKit          2D

 33 37  0  0  0  0  0  0  0  0999 V2000
   -0.6180   -5.0086    0.0000 C   0  0  0  0  0  0  0  0  0  0  0  0
   -2.0490   -5.4584    0.0000 C   0  0  0  0  0  0  0  0  0  0  0  0
   -3.1540   -4.4440    0.0000 N   0  0  0  0  0  0  0  0  0  0  0  0
   -2.8281   -2.9799    0.0000 C   0  0  0  0  0  0  0  0  0  0  0  0
   -1.3971   -2.5301    0.0000 C   0  0  0  0  0  0  0  0  0  0  0  0
   -0.2921   -3.5445    0.0000 N   0  0  0  0  0  0  0  0  0  0  0  0
    1.1389   -3.0947    0.0000 C   0  0  0  0  0  0  0  0  0  0  0  0
    2.2439   -4.1091    0.0000 O   0  0  0  0  0  0  0  0  0  0  0  0
    1.4649   -1.6305    0.0000 C   0  0  0  0  0  0  0  0  0  0  0  0
    2.8410   -1.0336    0.0000 C   0  0  0  0  0  0  0  0  0  0  0  0
    4.2054   -1.6569    0.0000 C   0  0  0  0  0  0  0  0  0  0  0  0
    5.4273   -0.7869    0.0000 N   0  0  0  0  0  0  0  0  0  0  0  0
    5.2849    0.7063    0.0000 C   0  0  0  0  0  0  0  0  0  0  0  0
    3.9205    1.3295    0.0000 C   0  0  0  0  0  0  0  0  0  0  0  0
    2.6986    0.4596    0.0000 C   0  0  0  0  0  0  0  0  0  0  0  0
    1.2344    0.7855    0.0000 N   0  0  0  0  0  0  0  0  0  0  0  0
    0.6375    2.1617    0.0000 C   0  0  0  0  0  0  0  0  0  0  0  0
   -0.8527    2.3328    0.0000 C   0  0  0  0  0  0  0  0  0  0  0  0
   -1.4496    3.7089    0.0000 C   0  0  0  0  0  0  0  0  0  0  0  0
   -0.5563    4.9139    0.0000 C   0  0  0  0  0  0  0  0  0  0  0  0
    0.9339    4.7428    0.0000 C   0  0  0  0  0  0  0  0  0  0  0  0
    1.5308    3.3667    0.0000 C   0  0  0  0  0  0  0  0  0  0  0  0
    0.4719   -0.5062    0.0000 C   0  0  0  0  0  0  0  0  0  0  0  0
   -1.0213   -0.6487    0.0000 C   0  0  0  0  0  0  0  0  0  0  0  0
   -1.8912    0.5733    0.0000 C   0  0  0  0  0  0  0  0  0  0  0  0
   -1.2680    1.9377    0.0000 C   0  0  0  0  0  0  0  0  0  0  0  0
   -2.1380    3.1596    0.0000 C   0  0  0  0  0  0  0  0  0  0  0  0
   -3.6312    3.0172    0.0000 C   0  0  0  0  0  0  0  0  0  0  0  0
   -4.2544    1.6528    0.0000 C   0  0  0  0  0  0  0  0  0  0  0  0
   -3.3845    0.4308    0.0000 C   0  0  0  0  0  0  0  0  0  0  0  0
   -4.0077   -0.9335    0.0000 C   0  0  0  0  0  0  0  0  0  0  0  0
   -5.7477    1.5104    0.0000 F   0  0  0  0  0  0  0  0  0  0  0  0
    6.5068    1.5763    0.0000 O   0  0  0  0  0  0  0  0  0  0  0  0
  1  2  1  0
  1  6  1  0
  2  3  1  0
  3  4  1  0
  4  5  1  0
  5  6  1  0
  6  7  1  0
  7  8  2  0
  7  9  1  0
  9 10  1  0
  9 23  2  0
 10 11  2  0
 10 15  1  0
 11 12  1  0
 12 13  1  0
 13 14  1  0
 13 33  2  0
 14 15  2  0
 15 16  1  0
 16 17  1  0
 16 23  1  0
 17 18  1  0
 17 22  1  0
 18 19  1  0
 19 20  1  0
 20 21  1  0
 21 22  1  0
 23 24  1  0
 24 25  1  0
 25 26  2  0
 25 30  1  0
 26 27  1  0
 27 28  2  0
 28 29  1  0
 29 30  2  0
 29 32  1  0
 30 31  1  0
M  END
>  <EXTREG>  (67) 
b3a6e

>  <ID>  (67) 
b3a6e

>  <RENIN_IC50>  (67) 
0.1160

>  <ORIGIN>  (67) 
BMCL2011B

>  <RENIN_PIC50>  (67) 
6.9355

>  <TRAIN>  (67) 
test

>  <TRAIN_CLASS>  (67) 
1

$$$$
b2a3q
     RDKit          2D

 31 35  0  0  0  0  0  0  0  0999 V2000
   -4.8712    0.8500    0.0000 C   0  0  0  0  0  0  0  0  0  0  0  0
   -5.2454    2.3026    0.0000 C   0  0  0  0  0  0  0  0  0  0  0  0
   -4.1745    3.3529    0.0000 N   0  0  0  0  0  0  0  0  0  0  0  0
   -2.7294    2.9507    0.0000 C   0  0  0  0  0  0  0  0  0  0  0  0
   -2.3553    1.4981    0.0000 C   0  0  0  0  0  0  0  0  0  0  0  0
   -3.4262    0.4478    0.0000 N   0  0  0  0  0  0  0  0  0  0  0  0
   -3.0520   -1.0048    0.0000 C   0  0  0  0  0  0  0  0  0  0  0  0
   -4.1229   -2.0552    0.0000 O   0  0  0  0  0  0  0  0  0  0  0  0
   -1.6069   -1.4071    0.0000 C   0  0  0  0  0  0  0  0  0  0  0  0
   -1.0830   -2.8126    0.0000 C   0  0  0  0  0  0  0  0  0  0  0  0
   -1.7769   -4.1424    0.0000 N   0  0  0  0  0  0  0  0  0  0  0  0
   -0.9722   -5.4083    0.0000 C   0  0  0  0  0  0  0  0  0  0  0  0
    0.5265   -5.3443    0.0000 C   0  0  0  0  0  0  0  0  0  0  0  0
    1.2204   -4.0145    0.0000 C   0  0  0  0  0  0  0  0  0  0  0  0
    0.4157   -2.7486    0.0000 C   0  0  0  0  0  0  0  0  0  0  0  0
    0.8179   -1.3036    0.0000 N   0  0  0  0  0  0  0  0  0  0  0  0
    2.2234   -0.7796    0.0000 C   0  0  0  0  0  0  0  0  0  0  0  0
    3.3799   -1.7348    0.0000 C   0  0  0  0  0  0  0  0  0  0  0  0
    4.7855   -1.2109    0.0000 C   0  0  0  0  0  0  0  0  0  0  0  0
    5.0345    0.2683    0.0000 C   0  0  0  0  0  0  0  0  0  0  0  0
    3.8779    1.2235    0.0000 C   0  0  0  0  0  0  0  0  0  0  0  0
    2.4724    0.6996    0.0000 C   0  0  0  0  0  0  0  0  0  0  0  0
   -0.4321   -0.4744    0.0000 C   0  0  0  0  0  0  0  0  0  0  0  0
   -0.4961    1.0242    0.0000 C   0  0  0  0  0  0  0  0  0  0  0  0
    0.7698    1.8289    0.0000 C   0  0  0  0  0  0  0  0  0  0  0  0
    2.0996    1.1350    0.0000 C   0  0  0  0  0  0  0  0  0  0  0  0
    3.3655    1.9397    0.0000 C   0  0  0  0  0  0  0  0  0  0  0  0
    3.3015    3.4384    0.0000 C   0  0  0  0  0  0  0  0  0  0  0  0
    1.9717    4.1323    0.0000 C   0  0  0  0  0  0  0  0  0  0  0  0
    0.7058    3.3276    0.0000 C   0  0  0  0  0  0  0  0  0  0  0  0
   -0.6241    4.0215    0.0000 C   0  0  0  0  0  0  0  0  0  0  0  0
  1  2  1  0
  1  6  1  0
  2  3  1  0
  3  4  1  0
  4  5  1  0
  5  6  1  0
  6  7  1  0
  7  8  2  0
  7  9  1  0
  9 10  1  0
  9 23  2  0
 10 11  2  0
 10 15  1  0
 11 12  1  0
 12 13  2  0
 13 14  1  0
 14 15  2  0
 15 16  1  0
 16 17  1  0
 16 23  1  0
 17 18  2  0
 17 22  1  0
 18 19  1  0
 19 20  2  0
 20 21  1  0
 21 22  2  0
 23 24  1  0
 24 25  1  0
 25 26  2  0
 25 30  1  0
 26 27  1  0
 27 28  2  0
 28 29  1  0
 29 30  2  0
 30 31  1  0
M  END
>  <EXTREG>  (68) 
b2a3q

>  <ID>  (68) 
b2a3q

>  <RENIN_IC50>  (68) 
0.1200

>  <ORIGIN>  (68) 
BMCL2011A

>  <RENIN_PIC50>  (68) 
6.9208

>  <TRAIN>  (68) 
train

>  <TRAIN_CLASS>  (68) 
0

$$$$
b1i5e
     RDKit          2D

 35 39  0  0  0  0  0  0  0  0999 V2000
   -2.6298   -4.6408    0.0000 C   0  0  0  0  0  0  0  0  0  0  0  0
   -4.1298   -4.6490    0.0000 C   0  0  0  0  0  0  0  0  0  0  0  0
   -4.8869   -3.3541    0.0000 N   0  0  0  0  0  0  0  0  0  0  0  0
   -4.1440   -2.0510    0.0000 C   0  0  0  0  0  0  0  0  0  0  0  0
   -2.6440   -2.0428    0.0000 C   0  0  0  0  0  0  0  0  0  0  0  0
   -1.8869   -3.3377    0.0000 N   0  0  0  0  0  0  0  0  0  0  0  0
   -0.3869   -3.3295    0.0000 C   0  0  0  0  0  0  0  0  0  0  0  0
    0.3701   -4.6244    0.0000 O   0  0  0  0  0  0  0  0  0  0  0  0
    0.3559   -2.0264    0.0000 C   0  0  0  0  0  0  0  0  0  0  0  0
    1.8468   -1.8615    0.0000 C   0  0  0  0  0  0  0  0  0  0  0  0
    2.9670   -2.8590    0.0000 C   0  0  0  0  0  0  0  0  0  0  0  0
    4.3911   -2.3877    0.0000 C   0  0  0  0  0  0  0  0  0  0  0  0
    4.6949   -0.9188    0.0000 C   0  0  0  0  0  0  0  0  0  0  0  0
    3.5747    0.0788    0.0000 C   0  0  0  0  0  0  0  0  0  0  0  0
    2.1507   -0.3926    0.0000 C   0  0  0  0  0  0  0  0  0  0  0  0
    0.8476    0.3503    0.0000 N   0  0  0  0  0  0  0  0  0  0  0  0
    0.6826    1.8412    0.0000 C   0  0  0  0  0  0  0  0  0  0  0  0
    1.8913    2.7295    0.0000 C   0  0  0  0  0  0  0  0  0  0  0  0
    1.7264    4.2204    0.0000 C   0  0  0  0  0  0  0  0  0  0  0  0
    0.3528    4.8230    0.0000 C   0  0  0  0  0  0  0  0  0  0  0  0
   -0.8559    3.9348    0.0000 C   0  0  0  0  0  0  0  0  0  0  0  0
   -0.6910    2.4438    0.0000 C   0  0  0  0  0  0  0  0  0  0  0  0
   -0.2616   -0.6594    0.0000 C   0  0  0  0  0  0  0  0  0  0  0  0
   -1.7305   -0.3556    0.0000 O   0  0  0  0  0  0  0  0  0  0  0  0
   -2.2019    1.0684    0.0000 C   0  0  0  0  0  0  0  0  0  0  0  0
   -1.2043    2.1886    0.0000 C   0  0  0  0  0  0  0  0  0  0  0  0
   -1.6756    3.6127    0.0000 C   0  0  0  0  0  0  0  0  0  0  0  0
   -3.1445    3.9165    0.0000 C   0  0  0  0  0  0  0  0  0  0  0  0
   -4.1421    2.7963    0.0000 C   0  0  0  0  0  0  0  0  0  0  0  0
   -3.6708    1.3723    0.0000 C   0  0  0  0  0  0  0  0  0  0  0  0
   -4.6684    0.2521    0.0000 C   0  0  0  0  0  0  0  0  0  0  0  0
   -0.6780    4.7328    0.0000 F   0  0  0  0  0  0  0  0  0  0  0  0
    6.1189   -0.4475    0.0000 C   0  0  0  0  0  0  0  0  0  0  0  0
    7.2391   -1.4451    0.0000 O   0  0  0  0  0  0  0  0  0  0  0  0
    6.4228    1.0214    0.0000 O   0  0  0  0  0  0  0  0  0  0  0  0
  1  2  1  0
  1  6  1  0
  2  3  1  0
  3  4  1  0
  4  5  1  0
  5  6  1  0
  6  7  1  0
  7  8  2  0
  7  9  1  0
  9 10  1  0
  9 23  2  0
 10 11  2  0
 10 15  1  0
 11 12  1  0
 12 13  2  0
 13 14  1  0
 13 33  1  0
 14 15  2  0
 15 16  1  0
 16 17  1  0
 16 23  1  0
 17 18  2  0
 17 22  1  0
 18 19  1  0
 19 20  2  0
 20 21  1  0
 21 22  2  0
 23 24  1  0
 24 25  1  0
 25 26  2  0
 25 30  1  0
 26 27  1  0
 27 28  2  0
 27 32  1  0
 28 29  1  0
 29 30  2  0
 30 31  1  0
 33 34  2  0
 33 35  1  0
M  END
>  <EXTREG>  (69) 
b1i5e

>  <ID>  (69) 
b1i5e

>  <RENIN_IC50>  (69) 
0.1220

>  <ORIGIN>  (69) 
BMCL2010

>  <RENIN_PIC50>  (69) 
6.9136

>  <TRAIN>  (69) 
train

>  <TRAIN_CLASS>  (69) 
0

$$$$
b3a5b
     RDKit          2D

 32 36  0  0  0  0  0  0  0  0999 V2000
    4.9006   -1.3498    0.0000 C   0  0  0  0  0  0  0  0  0  0  0  0
    5.1152   -2.8343    0.0000 C   0  0  0  0  0  0  0  0  0  0  0  0
    3.9369   -3.7625    0.0000 N   0  0  0  0  0  0  0  0  0  0  0  0
    2.5439   -3.2061    0.0000 C   0  0  0  0  0  0  0  0  0  0  0  0
    2.3292   -1.7215    0.0000 C   0  0  0  0  0  0  0  0  0  0  0  0
    3.5076   -0.7934    0.0000 N   0  0  0  0  0  0  0  0  0  0  0  0
    3.2929    0.6912    0.0000 C   0  0  0  0  0  0  0  0  0  0  0  0
    4.4713    1.6194    0.0000 O   0  0  0  0  0  0  0  0  0  0  0  0
    1.8999    1.2476    0.0000 C   0  0  0  0  0  0  0  0  0  0  0  0
    1.5313    2.7016    0.0000 C   0  0  0  0  0  0  0  0  0  0  0  0
    2.3651    3.9484    0.0000 C   0  0  0  0  0  0  0  0  0  0  0  0
    1.7022    5.2940    0.0000 N   0  0  0  0  0  0  0  0  0  0  0  0
    0.2055    5.3927    0.0000 C   0  0  0  0  0  0  0  0  0  0  0  0
   -0.6284    4.1458    0.0000 C   0  0  0  0  0  0  0  0  0  0  0  0
    0.0345    2.8003    0.0000 C   0  0  0  0  0  0  0  0  0  0  0  0
   -0.5218    1.4073    0.0000 N   0  0  0  0  0  0  0  0  0  0  0  0
   -1.9758    1.0386    0.0000 C   0  0  0  0  0  0  0  0  0  0  0  0
   -2.3836   -0.4049    0.0000 C   0  0  0  0  0  0  0  0  0  0  0  0
   -3.8376   -0.7735    0.0000 C   0  0  0  0  0  0  0  0  0  0  0  0
   -4.8838    0.3013    0.0000 C   0  0  0  0  0  0  0  0  0  0  0  0
   -4.4761    1.7448    0.0000 C   0  0  0  0  0  0  0  0  0  0  0  0
   -3.0221    2.1135    0.0000 C   0  0  0  0  0  0  0  0  0  0  0  0
    0.6310    0.4477    0.0000 C   0  0  0  0  0  0  0  0  0  0  0  0
    0.5323   -1.0491    0.0000 O   0  0  0  0  0  0  0  0  0  0  0  0
   -0.8132   -1.7120    0.0000 C   0  0  0  0  0  0  0  0  0  0  0  0
   -0.9119   -3.2087    0.0000 C   0  0  0  0  0  0  0  0  0  0  0  0
   -2.2575   -3.8716    0.0000 C   0  0  0  0  0  0  0  0  0  0  0  0
   -3.5044   -3.0378    0.0000 C   0  0  0  0  0  0  0  0  0  0  0  0
   -3.4057   -1.5410    0.0000 C   0  0  0  0  0  0  0  0  0  0  0  0
   -2.0601   -0.8781    0.0000 C   0  0  0  0  0  0  0  0  0  0  0  0
   -4.6526   -0.7072    0.0000 F   0  0  0  0  0  0  0  0  0  0  0  0
    0.3349   -4.0426    0.0000 C   0  0  0  0  0  0  0  0  0  0  0  0
  1  2  1  0
  1  6  1  0
  2  3  1  0
  3  4  1  0
  4  5  1  0
  5  6  1  0
  6  7  1  0
  7  8  2  0
  7  9  1  0
  9 10  1  0
  9 23  2  0
 10 11  2  0
 10 15  1  0
 11 12  1  0
 12 13  2  0
 13 14  1  0
 14 15  2  0
 15 16  1  0
 16 17  1  0
 16 23  1  0
 17 18  2  0
 17 22  1  0
 18 19  1  0
 19 20  2  0
 20 21  1  0
 21 22  2  0
 23 24  1  0
 24 25  1  0
 25 26  2  0
 25 30  1  0
 26 27  1  0
 26 32  1  0
 27 28  2  0
 28 29  1  0
 29 30  2  0
 29 31  1  0
M  END
>  <EXTREG>  (70) 
b3a5b

>  <ID>  (70) 
b3a5b

>  <RENIN_IC50>  (70) 
0.1230

>  <ORIGIN>  (70) 
BMCL2011B

>  <RENIN_PIC50>  (70) 
6.9101

>  <TRAIN>  (70) 
train

>  <TRAIN_CLASS>  (70) 
0

$$$$
b1i5g
     RDKit          2D

 37 41  0  0  0  0  0  0  0  0999 V2000
   -2.7416   -4.8354    0.0000 C   0  0  0  0  0  0  0  0  0  0  0  0
   -4.2337   -4.9889    0.0000 C   0  0  0  0  0  0  0  0  0  0  0  0
   -5.1127   -3.7734    0.0000 N   0  0  0  0  0  0  0  0  0  0  0  0
   -4.4995   -2.4044    0.0000 C   0  0  0  0  0  0  0  0  0  0  0  0
   -3.0074   -2.2509    0.0000 C   0  0  0  0  0  0  0  0  0  0  0  0
   -2.1284   -3.4664    0.0000 N   0  0  0  0  0  0  0  0  0  0  0  0
   -0.6363   -3.3129    0.0000 C   0  0  0  0  0  0  0  0  0  0  0  0
    0.2427   -4.5284    0.0000 O   0  0  0  0  0  0  0  0  0  0  0  0
   -0.0231   -1.9440    0.0000 C   0  0  0  0  0  0  0  0  0  0  0  0
    1.4448   -1.6354    0.0000 C   0  0  0  0  0  0  0  0  0  0  0  0
    2.6563   -2.5197    0.0000 C   0  0  0  0  0  0  0  0  0  0  0  0
    4.0280   -1.9127    0.0000 C   0  0  0  0  0  0  0  0  0  0  0  0
    4.1881   -0.4212    0.0000 C   0  0  0  0  0  0  0  0  0  0  0  0
    2.9765    0.4631    0.0000 C   0  0  0  0  0  0  0  0  0  0  0  0
    1.6049   -0.1439    0.0000 C   0  0  0  0  0  0  0  0  0  0  0  0
    0.2359    0.4692    0.0000 N   0  0  0  0  0  0  0  0  0  0  0  0
   -0.0727    1.9371    0.0000 C   0  0  0  0  0  0  0  0  0  0  0  0
   -1.4983    2.4038    0.0000 C   0  0  0  0  0  0  0  0  0  0  0  0
   -1.8069    3.8717    0.0000 C   0  0  0  0  0  0  0  0  0  0  0  0
   -0.6899    4.8730    0.0000 C   0  0  0  0  0  0  0  0  0  0  0  0
    0.7356    4.4063    0.0000 C   0  0  0  0  0  0  0  0  0  0  0  0
    1.0442    2.9384    0.0000 C   0  0  0  0  0  0  0  0  0  0  0  0
   -0.7703   -0.6433    0.0000 C   0  0  0  0  0  0  0  0  0  0  0  0
   -2.2617   -0.4832    0.0000 O   0  0  0  0  0  0  0  0  0  0  0  0
   -2.8688    0.8885    0.0000 C   0  0  0  0  0  0  0  0  0  0  0  0
   -1.9844    2.1001    0.0000 C   0  0  0  0  0  0  0  0  0  0  0  0
   -2.5915    3.4717    0.0000 C   0  0  0  0  0  0  0  0  0  0  0  0
   -4.0829    3.6318    0.0000 C   0  0  0  0  0  0  0  0  0  0  0  0
   -4.9672    2.4203    0.0000 C   0  0  0  0  0  0  0  0  0  0  0  0
   -4.3602    1.0486    0.0000 C   0  0  0  0  0  0  0  0  0  0  0  0
   -5.2446   -0.1630    0.0000 C   0  0  0  0  0  0  0  0  0  0  0  0
   -1.7071    4.6833    0.0000 F   0  0  0  0  0  0  0  0  0  0  0  0
    5.5598    0.1858    0.0000 O   0  0  0  0  0  0  0  0  0  0  0  0
    6.7713   -0.6985    0.0000 C   0  0  0  0  0  0  0  0  0  0  0  0
    8.1430   -0.0915    0.0000 C   0  0  0  0  0  0  0  0  0  0  0  0
    9.3546   -0.9758    0.0000 O   0  0  0  0  0  0  0  0  0  0  0  0
    8.3031    1.4000    0.0000 O   0  0  0  0  0  0  0  0  0  0  0  0
  1  2  1  0
  1  6  1  0
  2  3  1  0
  3  4  1  0
  4  5  1  0
  5  6  1  0
  6  7  1  0
  7  8  2  0
  7  9  1  0
  9 10  1  0
  9 23  2  0
 10 11  2  0
 10 15  1  0
 11 12  1  0
 12 13  2  0
 13 14  1  0
 13 33  1  0
 14 15  2  0
 15 16  1  0
 16 17  1  0
 16 23  1  0
 17 18  2  0
 17 22  1  0
 18 19  1  0
 19 20  2  0
 20 21  1  0
 21 22  2  0
 23 24  1  0
 24 25  1  0
 25 26  2  0
 25 30  1  0
 26 27  1  0
 27 28  2  0
 27 32  1  0
 28 29  1  0
 29 30  2  0
 30 31  1  0
 33 34  1  0
 34 35  1  0
 35 36  2  0
 35 37  1  0
M  END
>  <EXTREG>  (71) 
b1i5g

>  <ID>  (71) 
b1i5g

>  <RENIN_IC50>  (71) 
0.1300

>  <ORIGIN>  (71) 
BMCL2010

>  <RENIN_PIC50>  (71) 
6.8861

>  <TRAIN>  (71) 
train

>  <TRAIN_CLASS>  (71) 
0

$$$$
b2a4e
     RDKit          2D

 34 38  0  0  0  0  0  0  0  0999 V2000
   -3.8874   -2.9362    0.0000 C   0  0  0  0  0  0  0  0  0  0  0  0
   -5.1644   -2.1492    0.0000 C   0  0  0  0  0  0  0  0  0  0  0  0
   -5.1214   -0.6498    0.0000 N   0  0  0  0  0  0  0  0  0  0  0  0
   -3.8014    0.0626    0.0000 C   0  0  0  0  0  0  0  0  0  0  0  0
   -2.5244   -0.7243    0.0000 C   0  0  0  0  0  0  0  0  0  0  0  0
   -2.5674   -2.2237    0.0000 N   0  0  0  0  0  0  0  0  0  0  0  0
   -1.2904   -3.0107    0.0000 C   0  0  0  0  0  0  0  0  0  0  0  0
   -1.3334   -4.5101    0.0000 O   0  0  0  0  0  0  0  0  0  0  0  0
    0.0296   -2.2982    0.0000 C   0  0  0  0  0  0  0  0  0  0  0  0
    1.3819   -2.9474    0.0000 C   0  0  0  0  0  0  0  0  0  0  0  0
    1.8043   -4.3867    0.0000 N   0  0  0  0  0  0  0  0  0  0  0  0
    3.2620   -4.7405    0.0000 C   0  0  0  0  0  0  0  0  0  0  0  0
    4.2972   -3.6550    0.0000 C   0  0  0  0  0  0  0  0  0  0  0  0
    3.8748   -2.2158    0.0000 C   0  0  0  0  0  0  0  0  0  0  0  0
    2.4171   -1.8619    0.0000 C   0  0  0  0  0  0  0  0  0  0  0  0
    1.7047   -0.5419    0.0000 N   0  0  0  0  0  0  0  0  0  0  0  0
    2.3539    0.8103    0.0000 C   0  0  0  0  0  0  0  0  0  0  0  0
    1.5074    2.0487    0.0000 C   0  0  0  0  0  0  0  0  0  0  0  0
    2.1565    3.4009    0.0000 C   0  0  0  0  0  0  0  0  0  0  0  0
    3.6522    3.5149    0.0000 C   0  0  0  0  0  0  0  0  0  0  0  0
    4.4987    2.2765    0.0000 C   0  0  0  0  0  0  0  0  0  0  0  0
    3.8495    0.9243    0.0000 C   0  0  0  0  0  0  0  0  0  0  0  0
    0.2291   -0.8116    0.0000 C   0  0  0  0  0  0  0  0  0  0  0  0
   -0.8563    0.2237    0.0000 O   0  0  0  0  0  0  0  0  0  0  0  0
   -0.5025    1.6814    0.0000 C   0  0  0  0  0  0  0  0  0  0  0  0
   -1.5880    2.7166    0.0000 C   0  0  0  0  0  0  0  0  0  0  0  0
   -1.2342    4.1743    0.0000 C   0  0  0  0  0  0  0  0  0  0  0  0
    0.2051    4.5967    0.0000 C   0  0  0  0  0  0  0  0  0  0  0  0
    1.2906    3.5614    0.0000 C   0  0  0  0  0  0  0  0  0  0  0  0
    0.9368    2.1038    0.0000 C   0  0  0  0  0  0  0  0  0  0  0  0
    2.2405    1.3619    0.0000 C   0  0  0  0  0  0  0  0  0  0  0  0
   -3.0273    2.2942    0.0000 C   0  0  0  0  0  0  0  0  0  0  0  0
   -3.7583    1.5620    0.0000 C   0  0  0  0  0  0  0  0  0  0  0  0
   -5.0353    2.3489    0.0000 O   0  0  0  0  0  0  0  0  0  0  0  0
  1  2  1  0
  1  6  1  0
  2  3  1  0
  3  4  1  0
  4  5  1  0
  4 33  1  0
  5  6  1  0
  6  7  1  0
  7  8  2  0
  7  9  1  0
  9 10  1  0
  9 23  2  0
 10 11  2  0
 10 15  1  0
 11 12  1  0
 12 13  2  0
 13 14  1  0
 14 15  2  0
 15 16  1  0
 16 17  1  0
 16 23  1  0
 17 18  2  0
 17 22  1  0
 18 19  1  0
 19 20  2  0
 20 21  1  0
 21 22  2  0
 23 24  1  0
 24 25  1  0
 25 26  2  0
 25 30  1  0
 26 27  1  0
 26 32  1  0
 27 28  2  0
 28 29  1  0
 29 30  2  0
 30 31  1  0
 33 34  1  0
M  END
>  <EXTREG>  (72) 
b2a4e

>  <ID>  (72) 
b2a4e

>  <RENIN_IC50>  (72) 
0.1430

>  <ORIGIN>  (72) 
BMCL2011A

>  <RENIN_PIC50>  (72) 
6.8447

>  <TRAIN>  (72) 
train

>  <TRAIN_CLASS>  (72) 
0

$$$$
b3a6a
     RDKit          2D

 34 38  0  0  0  0  0  0  0  0999 V2000
   -1.2176   -4.9606    0.0000 C   0  0  0  0  0  0  0  0  0  0  0  0
   -2.6778   -5.3039    0.0000 C   0  0  0  0  0  0  0  0  0  0  0  0
   -3.7052   -4.2110    0.0000 N   0  0  0  0  0  0  0  0  0  0  0  0
   -3.2725   -2.7748    0.0000 C   0  0  0  0  0  0  0  0  0  0  0  0
   -1.8123   -2.4314    0.0000 C   0  0  0  0  0  0  0  0  0  0  0  0
   -0.7849   -3.5243    0.0000 N   0  0  0  0  0  0  0  0  0  0  0  0
    0.6753   -3.1810    0.0000 C   0  0  0  0  0  0  0  0  0  0  0  0
    1.7027   -4.2739    0.0000 O   0  0  0  0  0  0  0  0  0  0  0  0
    1.1081   -1.7448    0.0000 C   0  0  0  0  0  0  0  0  0  0  0  0
    2.5243   -1.2507    0.0000 C   0  0  0  0  0  0  0  0  0  0  0  0
    3.8392   -1.9726    0.0000 C   0  0  0  0  0  0  0  0  0  0  0  0
    5.1218   -1.1948    0.0000 N   0  0  0  0  0  0  0  0  0  0  0  0
    5.0896    0.3048    0.0000 C   0  0  0  0  0  0  0  0  0  0  0  0
    3.7747    1.0267    0.0000 C   0  0  0  0  0  0  0  0  0  0  0  0
    2.4921    0.2490    0.0000 C   0  0  0  0  0  0  0  0  0  0  0  0
    1.0559    0.6817    0.0000 N   0  0  0  0  0  0  0  0  0  0  0  0
    0.5618    2.0980    0.0000 C   0  0  0  0  0  0  0  0  0  0  0  0
    1.5413    3.2340    0.0000 C   0  0  0  0  0  0  0  0  0  0  0  0
    1.0472    4.6503    0.0000 C   0  0  0  0  0  0  0  0  0  0  0  0
   -0.4264    4.9306    0.0000 C   0  0  0  0  0  0  0  0  0  0  0  0
   -1.4059    3.7946    0.0000 C   0  0  0  0  0  0  0  0  0  0  0  0
   -0.9118    2.3783    0.0000 C   0  0  0  0  0  0  0  0  0  0  0  0
    0.2005   -0.5505    0.0000 C   0  0  0  0  0  0  0  0  0  0  0  0
   -1.2992   -0.5827    0.0000 C   0  0  0  0  0  0  0  0  0  0  0  0
   -2.0769    0.6999    0.0000 C   0  0  0  0  0  0  0  0  0  0  0  0
   -1.3550    2.0147    0.0000 C   0  0  0  0  0  0  0  0  0  0  0  0
   -2.1328    3.2974    0.0000 C   0  0  0  0  0  0  0  0  0  0  0  0
   -3.6324    3.2651    0.0000 C   0  0  0  0  0  0  0  0  0  0  0  0
   -4.3543    1.9503    0.0000 C   0  0  0  0  0  0  0  0  0  0  0  0
   -3.5766    0.6676    0.0000 C   0  0  0  0  0  0  0  0  0  0  0  0
   -4.2985   -0.6472    0.0000 C   0  0  0  0  0  0  0  0  0  0  0  0
   -5.8540    1.9180    0.0000 F   0  0  0  0  0  0  0  0  0  0  0  0
    6.3722    1.0826    0.0000 O   0  0  0  0  0  0  0  0  0  0  0  0
    7.6871    0.3607    0.0000 C   0  0  0  0  0  0  0  0  0  0  0  0
  1  2  1  0
  1  6  1  0
  2  3  1  0
  3  4  1  0
  4  5  1  0
  5  6  1  0
  6  7  1  0
  7  8  2  0
  7  9  1  0
  9 10  1  0
  9 23  2  0
 10 11  2  0
 10 15  1  0
 11 12  1  0
 12 13  2  0
 13 14  1  0
 13 33  1  0
 14 15  2  0
 15 16  1  0
 16 17  1  0
 16 23  1  0
 17 18  1  0
 17 22  1  0
 18 19  1  0
 19 20  1  0
 20 21  1  0
 21 22  1  0
 23 24  1  0
 24 25  1  0
 25 26  2  0
 25 30  1  0
 26 27  1  0
 27 28  2  0
 28 29  1  0
 29 30  2  0
 29 32  1  0
 30 31  1  0
 33 34  1  0
M  END
>  <EXTREG>  (73) 
b3a6a

>  <ID>  (73) 
b3a6a

>  <RENIN_IC50>  (73) 
0.1500

>  <ORIGIN>  (73) 
BMCL2011B

>  <RENIN_PIC50>  (73) 
6.8239

>  <TRAIN>  (73) 
train

>  <TRAIN_CLASS>  (73) 
0

$$$$
b2a4n
     RDKit          2D

 39 44  0  0  0  0  0  0  0  0999 V2000
    0.8481   -4.1119    0.0000 C   0  0  0  0  0  0  0  0  0  0  0  0
    2.1411   -4.8723    0.0000 C   0  0  0  0  0  0  0  0  0  0  0  0
    3.4461   -4.1328    0.0000 N   0  0  0  0  0  0  0  0  0  0  0  0
    3.4582   -2.6329    0.0000 C   0  0  0  0  0  0  0  0  0  0  0  0
    2.1653   -1.8724    0.0000 C   0  0  0  0  0  0  0  0  0  0  0  0
    0.8603   -2.6119    0.0000 N   0  0  0  0  0  0  0  0  0  0  0  0
   -0.4327   -1.8515    0.0000 C   0  0  0  0  0  0  0  0  0  0  0  0
   -1.0105   -2.4006    0.0000 O   0  0  0  0  0  0  0  0  0  0  0  0
   -0.4206   -0.3515    0.0000 C   0  0  0  0  0  0  0  0  0  0  0  0
    0.8000    0.5203    0.0000 C   0  0  0  0  0  0  0  0  0  0  0  0
    2.2647    0.1966    0.0000 N   0  0  0  0  0  0  0  0  0  0  0  0
    3.2773    1.3032    0.0000 C   0  0  0  0  0  0  0  0  0  0  0  0
    2.8254    2.7335    0.0000 C   0  0  0  0  0  0  0  0  0  0  0  0
    1.3607    3.0572    0.0000 C   0  0  0  0  0  0  0  0  0  0  0  0
    0.3480    1.9506    0.0000 C   0  0  0  0  0  0  0  0  0  0  0  0
   -1.1519    1.9627    0.0000 N   0  0  0  0  0  0  0  0  0  0  0  0
   -2.0238    3.1833    0.0000 C   0  0  0  0  0  0  0  0  0  0  0  0
   -1.4026    4.5487    0.0000 C   0  0  0  0  0  0  0  0  0  0  0  0
   -2.2745    5.7693    0.0000 C   0  0  0  0  0  0  0  0  0  0  0  0
   -3.7675    5.6245    0.0000 C   0  0  0  0  0  0  0  0  0  0  0  0
   -4.3886    4.2592    0.0000 C   0  0  0  0  0  0  0  0  0  0  0  0
   -3.5168    3.0386    0.0000 C   0  0  0  0  0  0  0  0  0  0  0  0
   -1.6269    0.5399    0.0000 C   0  0  0  0  0  0  0  0  0  0  0  0
   -3.0572    0.0879    0.0000 O   0  0  0  0  0  0  0  0  0  0  0  0
   -3.3809   -1.3767    0.0000 C   0  0  0  0  0  0  0  0  0  0  0  0
   -2.2743   -2.3894    0.0000 C   0  0  0  0  0  0  0  0  0  0  0  0
   -2.5980   -3.8540    0.0000 C   0  0  0  0  0  0  0  0  0  0  0  0
   -4.0283   -4.3060    0.0000 C   0  0  0  0  0  0  0  0  0  0  0  0
   -5.1349   -3.2934    0.0000 C   0  0  0  0  0  0  0  0  0  0  0  0
   -4.8112   -1.8287    0.0000 C   0  0  0  0  0  0  0  0  0  0  0  0
   -5.9178   -0.8160    0.0000 C   0  0  0  0  0  0  0  0  0  0  0  0
   -1.4787   -2.3402    0.0000 C   0  0  0  0  0  0  0  0  0  0  0  0
    2.1774   -0.3725    0.0000 C   0  0  0  0  0  0  0  0  0  0  0  0
    3.4825    0.3670    0.0000 C   0  0  0  0  0  0  0  0  0  0  0  0
    3.4946    1.8670    0.0000 C   0  0  0  0  0  0  0  0  0  0  0  0
    4.7996    2.6064    0.0000 C   0  0  0  0  0  0  0  0  0  0  0  0
    6.0926    1.8460    0.0000 C   0  0  0  0  0  0  0  0  0  0  0  0
    6.0805    0.3460    0.0000 C   0  0  0  0  0  0  0  0  0  0  0  0
    4.7754   -0.3935    0.0000 C   0  0  0  0  0  0  0  0  0  0  0  0
  1  2  1  0
  1  6  1  0
  2  3  1  0
  3  4  1  0
  4  5  1  0
  5  6  1  0
  5 33  1  0
  6  7  1  0
  7  8  2  0
  7  9  1  0
  9 10  1  0
  9 23  2  0
 10 11  2  0
 10 15  1  0
 11 12  1  0
 12 13  2  0
 13 14  1  0
 14 15  2  0
 15 16  1  0
 16 17  1  0
 16 23  1  0
 17 18  2  0
 17 22  1  0
 18 19  1  0
 19 20  2  0
 20 21  1  0
 21 22  2  0
 23 24  1  0
 24 25  1  0
 25 26  2  0
 25 30  1  0
 26 27  1  0
 26 32  1  0
 27 28  2  0
 28 29  1  0
 29 30  2  0
 30 31  1  0
 33 34  1  0
 34 35  2  0
 34 39  1  0
 35 36  1  0
 36 37  2  0
 37 38  1  0
 38 39  2  0
M  END
>  <EXTREG>  (74) 
b2a4n

>  <ID>  (74) 
b2a4n

>  <RENIN_IC50>  (74) 
0.1520

>  <ORIGIN>  (74) 
BMCL2011A

>  <RENIN_PIC50>  (74) 
6.8182

>  <TRAIN>  (74) 
train

>  <TRAIN_CLASS>  (74) 
0

$$$$
b3a7d
     RDKit          2D

 34 38  0  0  0  0  0  0  0  0999 V2000
   -1.2134   -4.8260    0.0000 C   0  0  0  0  0  0  0  0  0  0  0  0
   -2.6944   -5.0640    0.0000 C   0  0  0  0  0  0  0  0  0  0  0  0
   -3.6410   -3.9004    0.0000 N   0  0  0  0  0  0  0  0  0  0  0  0
   -3.1066   -2.4989    0.0000 C   0  0  0  0  0  0  0  0  0  0  0  0
   -1.6256   -2.2609    0.0000 C   0  0  0  0  0  0  0  0  0  0  0  0
   -0.6790   -3.4245    0.0000 N   0  0  0  0  0  0  0  0  0  0  0  0
    0.8020   -3.1865    0.0000 C   0  0  0  0  0  0  0  0  0  0  0  0
    1.7486   -4.3500    0.0000 O   0  0  0  0  0  0  0  0  0  0  0  0
    1.3364   -1.7849    0.0000 C   0  0  0  0  0  0  0  0  0  0  0  0
    2.7844   -1.3934    0.0000 C   0  0  0  0  0  0  0  0  0  0  0  0
    4.0442   -2.2075    0.0000 C   0  0  0  0  0  0  0  0  0  0  0  0
    5.3792   -1.5235    0.0000 N   0  0  0  0  0  0  0  0  0  0  0  0
    5.4543   -0.0254    0.0000 C   0  0  0  0  0  0  0  0  0  0  0  0
    4.1945    0.7887    0.0000 C   0  0  0  0  0  0  0  0  0  0  0  0
    2.8595    0.1047    0.0000 C   0  0  0  0  0  0  0  0  0  0  0  0
    1.4579    0.6391    0.0000 N   0  0  0  0  0  0  0  0  0  0  0  0
    1.0664    2.0871    0.0000 C   0  0  0  0  0  0  0  0  0  0  0  0
   -0.3834    2.4721    0.0000 C   0  0  0  0  0  0  0  0  0  0  0  0
   -0.7749    3.9201    0.0000 C   0  0  0  0  0  0  0  0  0  0  0  0
    0.2834    4.9832    0.0000 C   0  0  0  0  0  0  0  0  0  0  0  0
    1.7332    4.5982    0.0000 C   0  0  0  0  0  0  0  0  0  0  0  0
    2.1247    3.1502    0.0000 C   0  0  0  0  0  0  0  0  0  0  0  0
    0.5166   -0.5287    0.0000 C   0  0  0  0  0  0  0  0  0  0  0  0
   -0.9816   -0.4536    0.0000 C   0  0  0  0  0  0  0  0  0  0  0  0
   -1.6656    0.8814    0.0000 C   0  0  0  0  0  0  0  0  0  0  0  0
   -0.8514    2.1412    0.0000 C   0  0  0  0  0  0  0  0  0  0  0  0
   -1.5355    3.4762    0.0000 C   0  0  0  0  0  0  0  0  0  0  0  0
   -3.0336    3.5513    0.0000 C   0  0  0  0  0  0  0  0  0  0  0  0
   -3.8477    2.2915    0.0000 C   0  0  0  0  0  0  0  0  0  0  0  0
   -3.1637    0.9565    0.0000 C   0  0  0  0  0  0  0  0  0  0  0  0
   -3.9778   -0.3034    0.0000 C   0  0  0  0  0  0  0  0  0  0  0  0
   -5.3458    2.3666    0.0000 F   0  0  0  0  0  0  0  0  0  0  0  0
    6.7893    0.6586    0.0000 O   0  0  0  0  0  0  0  0  0  0  0  0
   -4.0533   -1.3353    0.0000 C   0  0  0  0  0  0  0  0  0  0  0  0
  1  2  1  0
  1  6  1  0
  2  3  1  0
  3  4  1  0
  4  5  1  0
  4 34  1  0
  5  6  1  0
  6  7  1  0
  7  8  2  0
  7  9  1  0
  9 10  1  0
  9 23  2  0
 10 11  2  0
 10 15  1  0
 11 12  1  0
 12 13  1  0
 13 14  1  0
 13 33  2  0
 14 15  2  0
 15 16  1  0
 16 17  1  0
 16 23  1  0
 17 18  1  0
 17 22  1  0
 18 19  1  0
 19 20  1  0
 20 21  1  0
 21 22  1  0
 23 24  1  0
 24 25  1  0
 25 26  2  0
 25 30  1  0
 26 27  1  0
 27 28  2  0
 28 29  1  0
 29 30  2  0
 29 32  1  0
 30 31  1  0
M  END
>  <EXTREG>  (75) 
b3a7d

>  <ID>  (75) 
b3a7d

>  <RENIN_IC50>  (75) 
0.1540

>  <ORIGIN>  (75) 
BMCL2011B

>  <RENIN_PIC50>  (75) 
6.8125

>  <TRAIN>  (75) 
train

>  <TRAIN_CLASS>  (75) 
0

$$$$
b3a3f
     RDKit          2D

 32 36  0  0  0  0  0  0  0  0999 V2000
    3.4020   -3.6323    0.0000 C   0  0  0  0  0  0  0  0  0  0  0  0
    2.7765   -4.9957    0.0000 C   0  0  0  0  0  0  0  0  0  0  0  0
    1.2830   -5.1356    0.0000 N   0  0  0  0  0  0  0  0  0  0  0  0
    0.4151   -3.9122    0.0000 C   0  0  0  0  0  0  0  0  0  0  0  0
    1.0406   -2.5489    0.0000 C   0  0  0  0  0  0  0  0  0  0  0  0
    2.5341   -2.4089    0.0000 N   0  0  0  0  0  0  0  0  0  0  0  0
    3.1596   -1.0456    0.0000 C   0  0  0  0  0  0  0  0  0  0  0  0
    4.6531   -0.9056    0.0000 O   0  0  0  0  0  0  0  0  0  0  0  0
    2.2917    0.1778    0.0000 C   0  0  0  0  0  0  0  0  0  0  0  0
    2.7713    1.5991    0.0000 C   0  0  0  0  0  0  0  0  0  0  0  0
    4.1484    2.1937    0.0000 C   0  0  0  0  0  0  0  0  0  0  0  0
    4.3220    3.6836    0.0000 C   0  0  0  0  0  0  0  0  0  0  0  0
    3.1185    4.5789    0.0000 C   0  0  0  0  0  0  0  0  0  0  0  0
    1.7414    3.9843    0.0000 N   0  0  0  0  0  0  0  0  0  0  0  0
    1.5678    2.4944    0.0000 C   0  0  0  0  0  0  0  0  0  0  0  0
    0.3444    1.6265    0.0000 N   0  0  0  0  0  0  0  0  0  0  0  0
   -1.0769    2.1061    0.0000 C   0  0  0  0  0  0  0  0  0  0  0  0
   -1.3722    3.5767    0.0000 C   0  0  0  0  0  0  0  0  0  0  0  0
   -2.7934    4.0563    0.0000 C   0  0  0  0  0  0  0  0  0  0  0  0
   -3.9194    3.0653    0.0000 C   0  0  0  0  0  0  0  0  0  0  0  0
   -3.6241    1.5946    0.0000 C   0  0  0  0  0  0  0  0  0  0  0  0
   -2.2029    1.1150    0.0000 C   0  0  0  0  0  0  0  0  0  0  0  0
    0.7918    0.1947    0.0000 C   0  0  0  0  0  0  0  0  0  0  0  0
   -0.1036   -1.0088    0.0000 O   0  0  0  0  0  0  0  0  0  0  0  0
   -1.5935   -0.8351    0.0000 C   0  0  0  0  0  0  0  0  0  0  0  0
   -2.1881    0.5420    0.0000 C   0  0  0  0  0  0  0  0  0  0  0  0
   -3.6780    0.7156    0.0000 C   0  0  0  0  0  0  0  0  0  0  0  0
   -4.5733   -0.4879    0.0000 C   0  0  0  0  0  0  0  0  0  0  0  0
   -3.9787   -1.8650    0.0000 C   0  0  0  0  0  0  0  0  0  0  0  0
   -2.4888   -2.0386    0.0000 C   0  0  0  0  0  0  0  0  0  0  0  0
   -1.8942   -3.4157    0.0000 C   0  0  0  0  0  0  0  0  0  0  0  0
   -4.8740   -3.0685    0.0000 F   0  0  0  0  0  0  0  0  0  0  0  0
  1  2  1  0
  1  6  1  0
  2  3  1  0
  3  4  1  0
  4  5  1  0
  5  6  1  0
  6  7  1  0
  7  8  2  0
  7  9  1  0
  9 10  1  0
  9 23  2  0
 10 11  2  0
 10 15  1  0
 11 12  1  0
 12 13  2  0
 13 14  1  0
 14 15  2  0
 15 16  1  0
 16 17  1  0
 16 23  1  0
 17 18  2  0
 17 22  1  0
 18 19  1  0
 19 20  2  0
 20 21  1  0
 21 22  2  0
 23 24  1  0
 24 25  1  0
 25 26  2  0
 25 30  1  0
 26 27  1  0
 27 28  2  0
 28 29  1  0
 29 30  2  0
 29 32  1  0
 30 31  1  0
M  END
>  <EXTREG>  (76) 
b3a3f

>  <ID>  (76) 
b3a3f

>  <RENIN_IC50>  (76) 
0.1700

>  <ORIGIN>  (76) 
BMCL2011B

>  <RENIN_PIC50>  (76) 
6.7696

>  <TRAIN>  (76) 
test

>  <TRAIN_CLASS>  (76) 
1

$$$$
b1i4c
     RDKit          2D

 36 40  0  0  0  0  0  0  0  0999 V2000
   -4.3400   -3.7122    0.0000 C   0  0  0  0  0  0  0  0  0  0  0  0
   -5.7875   -3.3186    0.0000 C   0  0  0  0  0  0  0  0  0  0  0  0
   -6.1704   -1.8683    0.0000 N   0  0  0  0  0  0  0  0  0  0  0  0
   -5.1058   -0.8115    0.0000 C   0  0  0  0  0  0  0  0  0  0  0  0
   -3.6584   -1.2051    0.0000 C   0  0  0  0  0  0  0  0  0  0  0  0
   -3.2755   -2.6554    0.0000 N   0  0  0  0  0  0  0  0  0  0  0  0
   -1.8280   -3.0490    0.0000 C   0  0  0  0  0  0  0  0  0  0  0  0
   -1.4452   -4.4993    0.0000 O   0  0  0  0  0  0  0  0  0  0  0  0
   -0.7635   -1.9922    0.0000 C   0  0  0  0  0  0  0  0  0  0  0  0
    0.7172   -2.2324    0.0000 C   0  0  0  0  0  0  0  0  0  0  0  0
    1.5295   -3.4934    0.0000 C   0  0  0  0  0  0  0  0  0  0  0  0
    3.0277   -3.4204    0.0000 C   0  0  0  0  0  0  0  0  0  0  0  0
    3.7136   -2.0864    0.0000 C   0  0  0  0  0  0  0  0  0  0  0  0
    2.9013   -0.8254    0.0000 C   0  0  0  0  0  0  0  0  0  0  0  0
    1.4031   -0.8984    0.0000 C   0  0  0  0  0  0  0  0  0  0  0  0
    0.3464    0.1662    0.0000 N   0  0  0  0  0  0  0  0  0  0  0  0
    0.5865    1.6469    0.0000 C   0  0  0  0  0  0  0  0  0  0  0  0
   -0.5758    2.5951    0.0000 C   0  0  0  0  0  0  0  0  0  0  0  0
   -0.3356    4.0758    0.0000 C   0  0  0  0  0  0  0  0  0  0  0  0
    1.0667    4.6082    0.0000 C   0  0  0  0  0  0  0  0  0  0  0  0
    2.2289    3.6599    0.0000 C   0  0  0  0  0  0  0  0  0  0  0  0
    1.9888    2.1792    0.0000 C   0  0  0  0  0  0  0  0  0  0  0  0
    3.1510    1.2310    0.0000 O   0  0  0  0  0  0  0  0  0  0  0  0
    4.5534    1.7633    0.0000 C   0  0  0  0  0  0  0  0  0  0  0  0
    5.7156    0.8151    0.0000 C   0  0  0  0  0  0  0  0  0  0  0  0
    5.4755   -0.6656    0.0000 C   0  0  0  0  0  0  0  0  0  0  0  0
    6.6377   -1.6139    0.0000 O   0  0  0  0  0  0  0  0  0  0  0  0
    6.3976   -3.0945    0.0000 C   0  0  0  0  0  0  0  0  0  0  0  0
   -0.9927   -0.5099    0.0000 C   0  0  0  0  0  0  0  0  0  0  0  0
   -2.3266    0.1761    0.0000 O   0  0  0  0  0  0  0  0  0  0  0  0
   -2.3996    1.6743    0.0000 C   0  0  0  0  0  0  0  0  0  0  0  0
   -3.7336    2.3602    0.0000 C   0  0  0  0  0  0  0  0  0  0  0  0
   -3.8066    3.8584    0.0000 C   0  0  0  0  0  0  0  0  0  0  0  0
   -2.5456    4.6707    0.0000 C   0  0  0  0  0  0  0  0  0  0  0  0
   -1.2116    3.9848    0.0000 C   0  0  0  0  0  0  0  0  0  0  0  0
   -1.1386    2.4866    0.0000 C   0  0  0  0  0  0  0  0  0  0  0  0
  1  2  1  0
  1  6  1  0
  2  3  1  0
  3  4  1  0
  4  5  1  0
  5  6  1  0
  6  7  1  0
  7  8  2  0
  7  9  1  0
  9 10  1  0
  9 29  2  0
 10 11  2  0
 10 15  1  0
 11 12  1  0
 12 13  2  0
 13 14  1  0
 14 15  2  0
 15 16  1  0
 16 17  1  0
 16 29  1  0
 17 18  2  0
 17 22  1  0
 18 19  1  0
 19 20  2  0
 20 21  1  0
 21 22  2  0
 22 23  1  0
 23 24  1  0
 24 25  1  0
 25 26  1  0
 26 27  1  0
 27 28  1  0
 29 30  1  0
 30 31  1  0
 31 32  2  0
 31 36  1  0
 32 33  1  0
 33 34  2  0
 34 35  1  0
 35 36  2  0
M  END
>  <EXTREG>  (77) 
b1i4c

>  <ID>  (77) 
b1i4c

>  <RENIN_IC50>  (77) 
0.1750

>  <ORIGIN>  (77) 
BMCL2010

>  <RENIN_PIC50>  (77) 
6.7570

>  <TRAIN>  (77) 
train

>  <TRAIN_CLASS>  (77) 
0

$$$$
b3a5c
     RDKit          2D

 32 36  0  0  0  0  0  0  0  0999 V2000
    3.4020   -3.6323    0.0000 C   0  0  0  0  0  0  0  0  0  0  0  0
    2.7765   -4.9957    0.0000 C   0  0  0  0  0  0  0  0  0  0  0  0
    1.2830   -5.1356    0.0000 N   0  0  0  0  0  0  0  0  0  0  0  0
    0.4151   -3.9122    0.0000 C   0  0  0  0  0  0  0  0  0  0  0  0
    1.0406   -2.5489    0.0000 C   0  0  0  0  0  0  0  0  0  0  0  0
    2.5341   -2.4089    0.0000 N   0  0  0  0  0  0  0  0  0  0  0  0
    3.1596   -1.0456    0.0000 C   0  0  0  0  0  0  0  0  0  0  0  0
    4.6531   -0.9056    0.0000 O   0  0  0  0  0  0  0  0  0  0  0  0
    2.2917    0.1778    0.0000 C   0  0  0  0  0  0  0  0  0  0  0  0
    2.7713    1.5991    0.0000 C   0  0  0  0  0  0  0  0  0  0  0  0
    4.1484    2.1937    0.0000 C   0  0  0  0  0  0  0  0  0  0  0  0
    4.3220    3.6836    0.0000 N   0  0  0  0  0  0  0  0  0  0  0  0
    3.1185    4.5789    0.0000 C   0  0  0  0  0  0  0  0  0  0  0  0
    1.7414    3.9843    0.0000 C   0  0  0  0  0  0  0  0  0  0  0  0
    1.5678    2.4944    0.0000 C   0  0  0  0  0  0  0  0  0  0  0  0
    0.3444    1.6265    0.0000 N   0  0  0  0  0  0  0  0  0  0  0  0
   -1.0769    2.1061    0.0000 C   0  0  0  0  0  0  0  0  0  0  0  0
   -2.2029    1.1150    0.0000 C   0  0  0  0  0  0  0  0  0  0  0  0
   -3.6241    1.5946    0.0000 C   0  0  0  0  0  0  0  0  0  0  0  0
   -3.9194    3.0653    0.0000 C   0  0  0  0  0  0  0  0  0  0  0  0
   -2.7934    4.0563    0.0000 C   0  0  0  0  0  0  0  0  0  0  0  0
   -1.3722    3.5767    0.0000 C   0  0  0  0  0  0  0  0  0  0  0  0
    0.7918    0.1947    0.0000 C   0  0  0  0  0  0  0  0  0  0  0  0
   -0.1036   -1.0088    0.0000 O   0  0  0  0  0  0  0  0  0  0  0  0
   -1.5935   -0.8351    0.0000 C   0  0  0  0  0  0  0  0  0  0  0  0
   -2.4888   -2.0386    0.0000 C   0  0  0  0  0  0  0  0  0  0  0  0
   -3.9787   -1.8650    0.0000 C   0  0  0  0  0  0  0  0  0  0  0  0
   -4.5733   -0.4879    0.0000 C   0  0  0  0  0  0  0  0  0  0  0  0
   -3.6780    0.7156    0.0000 C   0  0  0  0  0  0  0  0  0  0  0  0
   -2.1881    0.5420    0.0000 C   0  0  0  0  0  0  0  0  0  0  0  0
   -4.8740   -3.0685    0.0000 F   0  0  0  0  0  0  0  0  0  0  0  0
   -1.8942   -3.4157    0.0000 C   0  0  0  0  0  0  0  0  0  0  0  0
  1  2  1  0
  1  6  1  0
  2  3  1  0
  3  4  1  0
  4  5  1  0
  5  6  1  0
  6  7  1  0
  7  8  2  0
  7  9  1  0
  9 10  1  0
  9 23  2  0
 10 11  2  0
 10 15  1  0
 11 12  1  0
 12 13  2  0
 13 14  1  0
 14 15  2  0
 15 16  1  0
 16 17  1  0
 16 23  1  0
 17 18  2  0
 17 22  1  0
 18 19  1  0
 19 20  2  0
 20 21  1  0
 21 22  2  0
 23 24  1  0
 24 25  1  0
 25 26  2  0
 25 30  1  0
 26 27  1  0
 26 32  1  0
 27 28  2  0
 27 31  1  0
 28 29  1  0
 29 30  2  0
M  END
>  <EXTREG>  (78) 
b3a5c

>  <ID>  (78) 
b3a5c

>  <RENIN_IC50>  (78) 
0.1810

>  <ORIGIN>  (78) 
BMCL2011B

>  <RENIN_PIC50>  (78) 
6.7423

>  <TRAIN>  (78) 
test

>  <TRAIN_CLASS>  (78) 
1

$$$$
b3a4i
     RDKit          2D

 35 39  0  0  0  0  0  0  0  0999 V2000
    2.6276   -3.9693    0.0000 C   0  0  0  0  0  0  0  0  0  0  0  0
    1.9643   -5.3148    0.0000 C   0  0  0  0  0  0  0  0  0  0  0  0
    0.4676   -5.4131    0.0000 N   0  0  0  0  0  0  0  0  0  0  0  0
   -0.3660   -4.1660    0.0000 C   0  0  0  0  0  0  0  0  0  0  0  0
    0.2972   -2.8206    0.0000 C   0  0  0  0  0  0  0  0  0  0  0  0
    1.7940   -2.7223    0.0000 N   0  0  0  0  0  0  0  0  0  0  0  0
    2.4572   -1.3769    0.0000 C   0  0  0  0  0  0  0  0  0  0  0  0
    3.9540   -1.2785    0.0000 O   0  0  0  0  0  0  0  0  0  0  0  0
    1.6236   -0.1298    0.0000 C   0  0  0  0  0  0  0  0  0  0  0  0
    2.1426    1.2776    0.0000 C   0  0  0  0  0  0  0  0  0  0  0  0
    3.5357    1.8336    0.0000 C   0  0  0  0  0  0  0  0  0  0  0  0
    3.7507    3.3182    0.0000 C   0  0  0  0  0  0  0  0  0  0  0  0
    2.5726    4.2466    0.0000 C   0  0  0  0  0  0  0  0  0  0  0  0
    1.1794    3.6905    0.0000 N   0  0  0  0  0  0  0  0  0  0  0  0
    0.9645    2.2060    0.0000 C   0  0  0  0  0  0  0  0  0  0  0  0
   -0.2826    1.3725    0.0000 N   0  0  0  0  0  0  0  0  0  0  0  0
   -1.6900    1.8914    0.0000 C   0  0  0  0  0  0  0  0  0  0  0  0
   -2.8431    0.9321    0.0000 C   0  0  0  0  0  0  0  0  0  0  0  0
   -4.2505    1.4510    0.0000 C   0  0  0  0  0  0  0  0  0  0  0  0
   -4.5047    2.9293    0.0000 C   0  0  0  0  0  0  0  0  0  0  0  0
   -3.3516    3.8886    0.0000 C   0  0  0  0  0  0  0  0  0  0  0  0
   -1.9443    3.3697    0.0000 C   0  0  0  0  0  0  0  0  0  0  0  0
    0.1248   -0.0711    0.0000 C   0  0  0  0  0  0  0  0  0  0  0  0
   -0.8037   -1.2493    0.0000 O   0  0  0  0  0  0  0  0  0  0  0  0
   -2.2882   -1.0343    0.0000 C   0  0  0  0  0  0  0  0  0  0  0  0
   -3.2166   -2.2124    0.0000 C   0  0  0  0  0  0  0  0  0  0  0  0
   -4.7011   -1.9974    0.0000 C   0  0  0  0  0  0  0  0  0  0  0  0
   -5.2572   -0.6043    0.0000 C   0  0  0  0  0  0  0  0  0  0  0  0
   -4.3288    0.5738    0.0000 C   0  0  0  0  0  0  0  0  0  0  0  0
   -2.8442    0.3588    0.0000 C   0  0  0  0  0  0  0  0  0  0  0  0
   -2.2285    1.7266    0.0000 C   0  0  0  0  0  0  0  0  0  0  0  0
   -2.6606   -3.6055    0.0000 C   0  0  0  0  0  0  0  0  0  0  0  0
    4.7138    0.9052    0.0000 C   0  0  0  0  0  0  0  0  0  0  0  0
    6.1070    1.4613    0.0000 C   0  0  0  0  0  0  0  0  0  0  0  0
    7.2851    0.5328    0.0000 C   0  0  0  0  0  0  0  0  0  0  0  0
  1  2  1  0
  1  6  1  0
  2  3  1  0
  3  4  1  0
  4  5  1  0
  5  6  1  0
  6  7  1  0
  7  8  2  0
  7  9  1  0
  9 10  1  0
  9 23  2  0
 10 11  2  0
 10 15  1  0
 11 12  1  0
 11 33  1  0
 12 13  2  0
 13 14  1  0
 14 15  2  0
 15 16  1  0
 16 17  1  0
 16 23  1  0
 17 18  2  0
 17 22  1  0
 18 19  1  0
 19 20  2  0
 20 21  1  0
 21 22  2  0
 23 24  1  0
 24 25  1  0
 25 26  2  0
 25 30  1  0
 26 27  1  0
 26 32  1  0
 27 28  2  0
 28 29  1  0
 29 30  2  0
 30 31  1  0
 33 34  1  0
 34 35  1  0
M  END
>  <EXTREG>  (79) 
b3a4i

>  <ID>  (79) 
b3a4i

>  <RENIN_IC50>  (79) 
0.1860

>  <ORIGIN>  (79) 
BMCL2011B

>  <RENIN_PIC50>  (79) 
6.7305

>  <TRAIN>  (79) 
train

>  <TRAIN_CLASS>  (79) 
0

$$$$
b2a3e
     RDKit          2D

 32 36  0  0  0  0  0  0  0  0999 V2000
    4.9006   -1.3498    0.0000 C   0  0  0  0  0  0  0  0  0  0  0  0
    5.1152   -2.8343    0.0000 C   0  0  0  0  0  0  0  0  0  0  0  0
    3.9369   -3.7625    0.0000 N   0  0  0  0  0  0  0  0  0  0  0  0
    2.5439   -3.2061    0.0000 C   0  0  0  0  0  0  0  0  0  0  0  0
    2.3292   -1.7215    0.0000 C   0  0  0  0  0  0  0  0  0  0  0  0
    3.5076   -0.7934    0.0000 N   0  0  0  0  0  0  0  0  0  0  0  0
    3.2929    0.6912    0.0000 C   0  0  0  0  0  0  0  0  0  0  0  0
    4.4713    1.6194    0.0000 O   0  0  0  0  0  0  0  0  0  0  0  0
    1.8999    1.2476    0.0000 C   0  0  0  0  0  0  0  0  0  0  0  0
    1.5313    2.7016    0.0000 C   0  0  0  0  0  0  0  0  0  0  0  0
    2.3651    3.9484    0.0000 N   0  0  0  0  0  0  0  0  0  0  0  0
    1.7022    5.2940    0.0000 C   0  0  0  0  0  0  0  0  0  0  0  0
    0.2055    5.3927    0.0000 C   0  0  0  0  0  0  0  0  0  0  0  0
   -0.6284    4.1458    0.0000 C   0  0  0  0  0  0  0  0  0  0  0  0
    0.0345    2.8003    0.0000 C   0  0  0  0  0  0  0  0  0  0  0  0
   -0.5218    1.4073    0.0000 N   0  0  0  0  0  0  0  0  0  0  0  0
   -1.9758    1.0386    0.0000 C   0  0  0  0  0  0  0  0  0  0  0  0
   -3.0221    2.1135    0.0000 C   0  0  0  0  0  0  0  0  0  0  0  0
   -4.4761    1.7448    0.0000 C   0  0  0  0  0  0  0  0  0  0  0  0
   -4.8838    0.3013    0.0000 C   0  0  0  0  0  0  0  0  0  0  0  0
   -3.8376   -0.7735    0.0000 C   0  0  0  0  0  0  0  0  0  0  0  0
   -2.3836   -0.4049    0.0000 C   0  0  0  0  0  0  0  0  0  0  0  0
    0.6310    0.4477    0.0000 C   0  0  0  0  0  0  0  0  0  0  0  0
    0.5323   -1.0491    0.0000 O   0  0  0  0  0  0  0  0  0  0  0  0
   -0.8132   -1.7120    0.0000 C   0  0  0  0  0  0  0  0  0  0  0  0
   -2.0601   -0.8781    0.0000 C   0  0  0  0  0  0  0  0  0  0  0  0
   -3.4057   -1.5410    0.0000 C   0  0  0  0  0  0  0  0  0  0  0  0
   -3.5044   -3.0378    0.0000 C   0  0  0  0  0  0  0  0  0  0  0  0
   -2.2575   -3.8716    0.0000 C   0  0  0  0  0  0  0  0  0  0  0  0
   -0.9119   -3.2087    0.0000 C   0  0  0  0  0  0  0  0  0  0  0  0
    0.3349   -4.0426    0.0000 F   0  0  0  0  0  0  0  0  0  0  0  0
   -4.6526   -0.7072    0.0000 F   0  0  0  0  0  0  0  0  0  0  0  0
  1  2  1  0
  1  6  1  0
  2  3  1  0
  3  4  1  0
  4  5  1  0
  5  6  1  0
  6  7  1  0
  7  8  2  0
  7  9  1  0
  9 10  1  0
  9 23  2  0
 10 11  2  0
 10 15  1  0
 11 12  1  0
 12 13  2  0
 13 14  1  0
 14 15  2  0
 15 16  1  0
 16 17  1  0
 16 23  1  0
 17 18  2  0
 17 22  1  0
 18 19  1  0
 19 20  2  0
 20 21  1  0
 21 22  2  0
 23 24  1  0
 24 25  1  0
 25 26  2  0
 25 30  1  0
 26 27  1  0
 27 28  2  0
 27 32  1  0
 28 29  1  0
 29 30  2  0
 30 31  1  0
M  END
>  <EXTREG>  (80) 
b2a3e

>  <ID>  (80) 
b2a3e

>  <RENIN_IC50>  (80) 
0.2020

>  <ORIGIN>  (80) 
BMCL2011A

>  <RENIN_PIC50>  (80) 
6.6946

>  <TRAIN>  (80) 
test

>  <TRAIN_CLASS>  (80) 
1

$$$$
b3a4j
     RDKit          2D

 35 39  0  0  0  0  0  0  0  0999 V2000
    2.1471   -4.1806    0.0000 C   0  0  0  0  0  0  0  0  0  0  0  0
    1.2978   -5.4169    0.0000 C   0  0  0  0  0  0  0  0  0  0  0  0
   -0.1976   -5.2995    0.0000 N   0  0  0  0  0  0  0  0  0  0  0  0
   -0.8437   -3.9458    0.0000 C   0  0  0  0  0  0  0  0  0  0  0  0
    0.0057   -2.7094    0.0000 C   0  0  0  0  0  0  0  0  0  0  0  0
    1.5011   -2.8268    0.0000 N   0  0  0  0  0  0  0  0  0  0  0  0
    2.3505   -1.5905    0.0000 C   0  0  0  0  0  0  0  0  0  0  0  0
    3.8459   -1.7079    0.0000 O   0  0  0  0  0  0  0  0  0  0  0  0
    1.7045   -0.2367    0.0000 C   0  0  0  0  0  0  0  0  0  0  0  0
    2.4200    1.0816    0.0000 C   0  0  0  0  0  0  0  0  0  0  0  0
    3.8785    1.4321    0.0000 C   0  0  0  0  0  0  0  0  0  0  0  0
    4.3042    2.8704    0.0000 C   0  0  0  0  0  0  0  0  0  0  0  0
    3.2715    3.9583    0.0000 C   0  0  0  0  0  0  0  0  0  0  0  0
    1.8130    3.6078    0.0000 N   0  0  0  0  0  0  0  0  0  0  0  0
    1.3872    2.1695    0.0000 C   0  0  0  0  0  0  0  0  0  0  0  0
    0.0335    1.5235    0.0000 N   0  0  0  0  0  0  0  0  0  0  0  0
   -1.2849    2.2390    0.0000 C   0  0  0  0  0  0  0  0  0  0  0  0
   -1.3244    3.7385    0.0000 C   0  0  0  0  0  0  0  0  0  0  0  0
   -2.6428    4.4539    0.0000 C   0  0  0  0  0  0  0  0  0  0  0  0
   -3.9216    3.6700    0.0000 C   0  0  0  0  0  0  0  0  0  0  0  0
   -3.8820    2.1705    0.0000 C   0  0  0  0  0  0  0  0  0  0  0  0
   -2.5637    1.4550    0.0000 C   0  0  0  0  0  0  0  0  0  0  0  0
    0.2295    0.0364    0.0000 C   0  0  0  0  0  0  0  0  0  0  0  0
   -0.8583   -0.9964    0.0000 C   0  0  0  0  0  0  0  0  0  0  0  0
   -2.2966   -0.5706    0.0000 C   0  0  0  0  0  0  0  0  0  0  0  0
   -2.6471    0.8879    0.0000 C   0  0  0  0  0  0  0  0  0  0  0  0
   -4.0854    1.3136    0.0000 C   0  0  0  0  0  0  0  0  0  0  0  0
   -5.1732    0.2809    0.0000 C   0  0  0  0  0  0  0  0  0  0  0  0
   -4.8228   -1.1776    0.0000 C   0  0  0  0  0  0  0  0  0  0  0  0
   -3.3845   -1.6034    0.0000 C   0  0  0  0  0  0  0  0  0  0  0  0
   -3.0341   -3.0618    0.0000 C   0  0  0  0  0  0  0  0  0  0  0  0
   -5.9107   -2.2103    0.0000 F   0  0  0  0  0  0  0  0  0  0  0  0
    4.9112    0.3442    0.0000 C   0  0  0  0  0  0  0  0  0  0  0  0
    6.3697    0.6946    0.0000 C   0  0  0  0  0  0  0  0  0  0  0  0
    7.4024   -0.3932    0.0000 C   0  0  0  0  0  0  0  0  0  0  0  0
  1  2  1  0
  1  6  1  0
  2  3  1  0
  3  4  1  0
  4  5  1  0
  5  6  1  0
  6  7  1  0
  7  8  2  0
  7  9  1  0
  9 10  1  0
  9 23  2  0
 10 11  2  0
 10 15  1  0
 11 12  1  0
 11 33  1  0
 12 13  2  0
 13 14  1  0
 14 15  2  0
 15 16  1  0
 16 17  1  0
 16 23  1  0
 17 18  2  0
 17 22  1  0
 18 19  1  0
 19 20  2  0
 20 21  1  0
 21 22  2  0
 23 24  1  0
 24 25  1  0
 25 26  2  0
 25 30  1  0
 26 27  1  0
 27 28  2  0
 28 29  1  0
 29 30  2  0
 29 32  1  0
 30 31  1  0
 33 34  1  0
 34 35  1  0
M  END
>  <EXTREG>  (81) 
b3a4j

>  <ID>  (81) 
b3a4j

>  <RENIN_IC50>  (81) 
0.2180

>  <ORIGIN>  (81) 
BMCL2011B

>  <RENIN_PIC50>  (81) 
6.6615

>  <TRAIN>  (81) 
test

>  <TRAIN_CLASS>  (81) 
1

$$$$
b3a3d
     RDKit          2D

 32 36  0  0  0  0  0  0  0  0999 V2000
   -4.9661    0.7617    0.0000 C   0  0  0  0  0  0  0  0  0  0  0  0
   -5.3688    2.2066    0.0000 C   0  0  0  0  0  0  0  0  0  0  0  0
   -4.3188    3.2779    0.0000 N   0  0  0  0  0  0  0  0  0  0  0  0
   -2.8661    2.9042    0.0000 C   0  0  0  0  0  0  0  0  0  0  0  0
   -2.4634    1.4593    0.0000 C   0  0  0  0  0  0  0  0  0  0  0  0
   -3.5134    0.3880    0.0000 N   0  0  0  0  0  0  0  0  0  0  0  0
   -3.1106   -1.0569    0.0000 C   0  0  0  0  0  0  0  0  0  0  0  0
   -4.1606   -2.1281    0.0000 O   0  0  0  0  0  0  0  0  0  0  0  0
   -1.6579   -1.4306    0.0000 C   0  0  0  0  0  0  0  0  0  0  0  0
   -1.1064   -2.8255    0.0000 C   0  0  0  0  0  0  0  0  0  0  0  0
   -1.7739   -4.1687    0.0000 C   0  0  0  0  0  0  0  0  0  0  0  0
   -0.9444   -5.4185    0.0000 C   0  0  0  0  0  0  0  0  0  0  0  0
    0.5527   -5.3250    0.0000 C   0  0  0  0  0  0  0  0  0  0  0  0
    1.2203   -3.9817    0.0000 N   0  0  0  0  0  0  0  0  0  0  0  0
    0.3907   -2.7319    0.0000 C   0  0  0  0  0  0  0  0  0  0  0  0
    0.7644   -1.2792    0.0000 N   0  0  0  0  0  0  0  0  0  0  0  0
    2.1593   -0.7277    0.0000 C   0  0  0  0  0  0  0  0  0  0  0  0
    2.3791    0.7561    0.0000 C   0  0  0  0  0  0  0  0  0  0  0  0
    3.7740    1.3077    0.0000 C   0  0  0  0  0  0  0  0  0  0  0  0
    4.9491    0.3755    0.0000 C   0  0  0  0  0  0  0  0  0  0  0  0
    4.7294   -1.1083    0.0000 C   0  0  0  0  0  0  0  0  0  0  0  0
    3.3344   -1.6599    0.0000 C   0  0  0  0  0  0  0  0  0  0  0  0
   -0.5017   -0.4749    0.0000 C   0  0  0  0  0  0  0  0  0  0  0  0
   -0.5953    1.0221    0.0000 O   0  0  0  0  0  0  0  0  0  0  0  0
    0.6545    1.8517    0.0000 C   0  0  0  0  0  0  0  0  0  0  0  0
    0.5610    3.3488    0.0000 C   0  0  0  0  0  0  0  0  0  0  0  0
    1.8107    4.1783    0.0000 C   0  0  0  0  0  0  0  0  0  0  0  0
    3.1540    3.5107    0.0000 C   0  0  0  0  0  0  0  0  0  0  0  0
    3.2475    2.0137    0.0000 C   0  0  0  0  0  0  0  0  0  0  0  0
    1.9978    1.1841    0.0000 C   0  0  0  0  0  0  0  0  0  0  0  0
    2.4508   -0.2458    0.0000 C   0  0  0  0  0  0  0  0  0  0  0  0
   -0.7823    4.0163    0.0000 F   0  0  0  0  0  0  0  0  0  0  0  0
  1  2  1  0
  1  6  1  0
  2  3  1  0
  3  4  1  0
  4  5  1  0
  5  6  1  0
  6  7  1  0
  7  8  2  0
  7  9  1  0
  9 10  1  0
  9 23  2  0
 10 11  2  0
 10 15  1  0
 11 12  1  0
 12 13  2  0
 13 14  1  0
 14 15  2  0
 15 16  1  0
 16 17  1  0
 16 23  1  0
 17 18  2  0
 17 22  1  0
 18 19  1  0
 19 20  2  0
 20 21  1  0
 21 22  2  0
 23 24  1  0
 24 25  1  0
 25 26  2  0
 25 30  1  0
 26 27  1  0
 26 32  1  0
 27 28  2  0
 28 29  1  0
 29 30  2  0
 30 31  1  0
M  END
>  <EXTREG>  (82) 
b3a3d

>  <ID>  (82) 
b3a3d

>  <RENIN_IC50>  (82) 
0.2310

>  <ORIGIN>  (82) 
BMCL2011B

>  <RENIN_PIC50>  (82) 
6.6364

>  <TRAIN>  (82) 
train

>  <TRAIN_CLASS>  (82) 
0

$$$$
b2a3s
     RDKit          2D

 33 37  0  0  0  0  0  0  0  0999 V2000
    4.4890   -2.5002    0.0000 C   0  0  0  0  0  0  0  0  0  0  0  0
    4.3193   -3.9905    0.0000 C   0  0  0  0  0  0  0  0  0  0  0  0
    2.9438   -4.5888    0.0000 N   0  0  0  0  0  0  0  0  0  0  0  0
    1.7379   -3.6966    0.0000 C   0  0  0  0  0  0  0  0  0  0  0  0
    1.9076   -2.2062    0.0000 C   0  0  0  0  0  0  0  0  0  0  0  0
    3.2832   -1.6080    0.0000 N   0  0  0  0  0  0  0  0  0  0  0  0
    3.4529   -0.1176    0.0000 C   0  0  0  0  0  0  0  0  0  0  0  0
    4.8284    0.4806    0.0000 O   0  0  0  0  0  0  0  0  0  0  0  0
    2.2471    0.7745    0.0000 C   0  0  0  0  0  0  0  0  0  0  0  0
    2.2600    2.2745    0.0000 C   0  0  0  0  0  0  0  0  0  0  0  0
    3.3834    3.2685    0.0000 N   0  0  0  0  0  0  0  0  0  0  0  0
    3.0843    4.7383    0.0000 C   0  0  0  0  0  0  0  0  0  0  0  0
    1.6617    5.2142    0.0000 C   0  0  0  0  0  0  0  0  0  0  0  0
    0.5384    4.2202    0.0000 C   0  0  0  0  0  0  0  0  0  0  0  0
    0.8375    2.7503    0.0000 C   0  0  0  0  0  0  0  0  0  0  0  0
   -0.0546    1.5445    0.0000 N   0  0  0  0  0  0  0  0  0  0  0  0
   -1.5546    1.5575    0.0000 C   0  0  0  0  0  0  0  0  0  0  0  0
   -2.3158    0.2650    0.0000 C   0  0  0  0  0  0  0  0  0  0  0  0
   -3.8157    0.2779    0.0000 C   0  0  0  0  0  0  0  0  0  0  0  0
   -4.5545    1.5834    0.0000 C   0  0  0  0  0  0  0  0  0  0  0  0
   -3.7932    2.8759    0.0000 C   0  0  0  0  0  0  0  0  0  0  0  0
   -2.2933    2.8629    0.0000 C   0  0  0  0  0  0  0  0  0  0  0  0
    0.8165    0.3234    0.0000 C   0  0  0  0  0  0  0  0  0  0  0  0
    0.3406   -1.0992    0.0000 C   0  0  0  0  0  0  0  0  0  0  0  0
   -1.1292   -1.3983    0.0000 C   0  0  0  0  0  0  0  0  0  0  0  0
   -2.1232   -0.2750    0.0000 C   0  0  0  0  0  0  0  0  0  0  0  0
   -3.5931   -0.5741    0.0000 C   0  0  0  0  0  0  0  0  0  0  0  0
   -4.0690   -1.9966    0.0000 C   0  0  0  0  0  0  0  0  0  0  0  0
   -3.0749   -3.1200    0.0000 C   0  0  0  0  0  0  0  0  0  0  0  0
   -1.6051   -2.8208    0.0000 C   0  0  0  0  0  0  0  0  0  0  0  0
   -0.6111   -3.9442    0.0000 C   0  0  0  0  0  0  0  0  0  0  0  0
   -5.5388   -2.2958    0.0000 F   0  0  0  0  0  0  0  0  0  0  0  0
   -2.0057    1.2204    0.0000 C   0  0  0  0  0  0  0  0  0  0  0  0
  1  2  1  0
  1  6  1  0
  2  3  1  0
  3  4  1  0
  4  5  1  0
  5  6  1  0
  6  7  1  0
  7  8  2  0
  7  9  1  0
  9 10  1  0
  9 23  2  0
 10 11  2  0
 10 15  1  0
 11 12  1  0
 12 13  2  0
 13 14  1  0
 14 15  2  0
 15 16  1  0
 16 17  1  0
 16 23  1  0
 17 18  2  0
 17 22  1  0
 18 19  1  0
 19 20  2  0
 20 21  1  0
 21 22  2  0
 23 24  1  0
 24 25  1  0
 25 26  2  0
 25 30  1  0
 26 27  1  0
 26 33  1  0
 27 28  2  0
 28 29  1  0
 28 32  1  0
 29 30  2  0
 30 31  1  0
M  END
>  <EXTREG>  (83) 
b2a3s

>  <ID>  (83) 
b2a3s

>  <RENIN_IC50>  (83) 
0.2460

>  <ORIGIN>  (83) 
BMCL2011A

>  <RENIN_PIC50>  (83) 
6.6091

>  <TRAIN>  (83) 
train

>  <TRAIN_CLASS>  (83) 
0

$$$$
b2a3a
     RDKit          2D

 31 35  0  0  0  0  0  0  0  0999 V2000
   -4.8712    0.8500    0.0000 C   0  0  0  0  0  0  0  0  0  0  0  0
   -5.2454    2.3026    0.0000 C   0  0  0  0  0  0  0  0  0  0  0  0
   -4.1745    3.3529    0.0000 N   0  0  0  0  0  0  0  0  0  0  0  0
   -2.7294    2.9507    0.0000 C   0  0  0  0  0  0  0  0  0  0  0  0
   -2.3553    1.4981    0.0000 C   0  0  0  0  0  0  0  0  0  0  0  0
   -3.4262    0.4478    0.0000 N   0  0  0  0  0  0  0  0  0  0  0  0
   -3.0520   -1.0048    0.0000 C   0  0  0  0  0  0  0  0  0  0  0  0
   -4.1229   -2.0552    0.0000 O   0  0  0  0  0  0  0  0  0  0  0  0
   -1.6069   -1.4071    0.0000 C   0  0  0  0  0  0  0  0  0  0  0  0
   -1.0830   -2.8126    0.0000 C   0  0  0  0  0  0  0  0  0  0  0  0
   -1.7769   -4.1424    0.0000 N   0  0  0  0  0  0  0  0  0  0  0  0
   -0.9722   -5.4083    0.0000 C   0  0  0  0  0  0  0  0  0  0  0  0
    0.5265   -5.3443    0.0000 C   0  0  0  0  0  0  0  0  0  0  0  0
    1.2204   -4.0145    0.0000 C   0  0  0  0  0  0  0  0  0  0  0  0
    0.4157   -2.7486    0.0000 C   0  0  0  0  0  0  0  0  0  0  0  0
    0.8179   -1.3036    0.0000 N   0  0  0  0  0  0  0  0  0  0  0  0
    2.2234   -0.7796    0.0000 C   0  0  0  0  0  0  0  0  0  0  0  0
    3.3799   -1.7348    0.0000 C   0  0  0  0  0  0  0  0  0  0  0  0
    4.7855   -1.2109    0.0000 C   0  0  0  0  0  0  0  0  0  0  0  0
    5.0345    0.2683    0.0000 C   0  0  0  0  0  0  0  0  0  0  0  0
    3.8779    1.2235    0.0000 C   0  0  0  0  0  0  0  0  0  0  0  0
    2.4724    0.6996    0.0000 C   0  0  0  0  0  0  0  0  0  0  0  0
   -0.4321   -0.4744    0.0000 C   0  0  0  0  0  0  0  0  0  0  0  0
   -0.4961    1.0242    0.0000 O   0  0  0  0  0  0  0  0  0  0  0  0
    0.7698    1.8289    0.0000 C   0  0  0  0  0  0  0  0  0  0  0  0
    2.0996    1.1350    0.0000 C   0  0  0  0  0  0  0  0  0  0  0  0
    3.3655    1.9397    0.0000 C   0  0  0  0  0  0  0  0  0  0  0  0
    3.3015    3.4384    0.0000 C   0  0  0  0  0  0  0  0  0  0  0  0
    1.9717    4.1323    0.0000 C   0  0  0  0  0  0  0  0  0  0  0  0
    0.7058    3.3276    0.0000 C   0  0  0  0  0  0  0  0  0  0  0  0
   -0.6241    4.0215    0.0000 C   0  0  0  0  0  0  0  0  0  0  0  0
  1  2  1  0
  1  6  1  0
  2  3  1  0
  3  4  1  0
  4  5  1  0
  5  6  1  0
  6  7  1  0
  7  8  2  0
  7  9  1  0
  9 10  1  0
  9 23  2  0
 10 11  2  0
 10 15  1  0
 11 12  1  0
 12 13  2  0
 13 14  1  0
 14 15  2  0
 15 16  1  0
 16 17  1  0
 16 23  1  0
 17 18  2  0
 17 22  1  0
 18 19  1  0
 19 20  2  0
 20 21  1  0
 21 22  2  0
 23 24  1  0
 24 25  1  0
 25 26  2  0
 25 30  1  0
 26 27  1  0
 27 28  2  0
 28 29  1  0
 29 30  2  0
 30 31  1  0
M  END
>  <EXTREG>  (84) 
b2a3a

>  <ID>  (84) 
b2a3a

>  <RENIN_IC50>  (84) 
0.2500

>  <ORIGIN>  (84) 
BMCL2011A

>  <RENIN_PIC50>  (84) 
6.6021

>  <TRAIN>  (84) 
test

>  <TRAIN_CLASS>  (84) 
1

$$$$
b2a4k
     RDKit          2D

 36 40  0  0  0  0  0  0  0  0999 V2000
   -1.6879   -4.4709    0.0000 C   0  0  0  0  0  0  0  0  0  0  0  0
   -3.1844   -4.3686    0.0000 C   0  0  0  0  0  0  0  0  0  0  0  0
   -3.8441   -3.0215    0.0000 N   0  0  0  0  0  0  0  0  0  0  0  0
   -3.0072   -1.7766    0.0000 C   0  0  0  0  0  0  0  0  0  0  0  0
   -1.5107   -1.8789    0.0000 C   0  0  0  0  0  0  0  0  0  0  0  0
   -0.8511   -3.2260    0.0000 N   0  0  0  0  0  0  0  0  0  0  0  0
    0.6455   -3.3283    0.0000 C   0  0  0  0  0  0  0  0  0  0  0  0
    1.3051   -4.6755    0.0000 O   0  0  0  0  0  0  0  0  0  0  0  0
    1.4823   -2.0834    0.0000 C   0  0  0  0  0  0  0  0  0  0  0  0
    2.9813   -2.0287    0.0000 C   0  0  0  0  0  0  0  0  0  0  0  0
    4.0250   -3.1061    0.0000 N   0  0  0  0  0  0  0  0  0  0  0  0
    5.4798   -2.7409    0.0000 C   0  0  0  0  0  0  0  0  0  0  0  0
    5.8910   -1.2984    0.0000 C   0  0  0  0  0  0  0  0  0  0  0  0
    4.8474   -0.2210    0.0000 C   0  0  0  0  0  0  0  0  0  0  0  0
    3.3925   -0.5862    0.0000 C   0  0  0  0  0  0  0  0  0  0  0  0
    2.1476    0.2506    0.0000 N   0  0  0  0  0  0  0  0  0  0  0  0
    2.0929    1.7496    0.0000 C   0  0  0  0  0  0  0  0  0  0  0  0
    3.3637    2.5465    0.0000 C   0  0  0  0  0  0  0  0  0  0  0  0
    3.3090    4.0455    0.0000 C   0  0  0  0  0  0  0  0  0  0  0  0
    1.9835    4.7476    0.0000 C   0  0  0  0  0  0  0  0  0  0  0  0
    0.7127    3.9508    0.0000 C   0  0  0  0  0  0  0  0  0  0  0  0
    0.7674    2.4518    0.0000 C   0  0  0  0  0  0  0  0  0  0  0  0
    0.9670   -0.6747    0.0000 C   0  0  0  0  0  0  0  0  0  0  0  0
   -0.4755   -0.2635    0.0000 O   0  0  0  0  0  0  0  0  0  0  0  0
   -0.8407    1.1913    0.0000 C   0  0  0  0  0  0  0  0  0  0  0  0
   -2.2832    1.6025    0.0000 C   0  0  0  0  0  0  0  0  0  0  0  0
   -2.6484    3.0574    0.0000 C   0  0  0  0  0  0  0  0  0  0  0  0
   -1.5710    4.1011    0.0000 C   0  0  0  0  0  0  0  0  0  0  0  0
   -0.1285    3.6899    0.0000 C   0  0  0  0  0  0  0  0  0  0  0  0
    0.2367    2.2350    0.0000 C   0  0  0  0  0  0  0  0  0  0  0  0
    1.7359    2.1851    0.0000 C   0  0  0  0  0  0  0  0  0  0  0  0
   -3.3606    0.5589    0.0000 C   0  0  0  0  0  0  0  0  0  0  0  0
   -3.6669   -0.4294    0.0000 C   0  0  0  0  0  0  0  0  0  0  0  0
   -5.1634   -0.3272    0.0000 C   0  0  0  0  0  0  0  0  0  0  0  0
   -5.8231    1.0200    0.0000 C   0  0  0  0  0  0  0  0  0  0  0  0
   -7.3196    1.1223    0.0000 C   0  0  0  0  0  0  0  0  0  0  0  0
  1  2  1  0
  1  6  1  0
  2  3  1  0
  3  4  1  0
  4  5  1  0
  4 33  1  0
  5  6  1  0
  6  7  1  0
  7  8  2  0
  7  9  1  0
  9 10  1  0
  9 23  2  0
 10 11  2  0
 10 15  1  0
 11 12  1  0
 12 13  2  0
 13 14  1  0
 14 15  2  0
 15 16  1  0
 16 17  1  0
 16 23  1  0
 17 18  2  0
 17 22  1  0
 18 19  1  0
 19 20  2  0
 20 21  1  0
 21 22  2  0
 23 24  1  0
 24 25  1  0
 25 26  2  0
 25 30  1  0
 26 27  1  0
 26 32  1  0
 27 28  2  0
 28 29  1  0
 29 30  2  0
 30 31  1  0
 33 34  1  0
 34 35  1  0
 35 36  1  0
M  END
>  <EXTREG>  (85) 
b2a4k

>  <ID>  (85) 
b2a4k

>  <RENIN_IC50>  (85) 
0.2850

>  <ORIGIN>  (85) 
BMCL2011A

>  <RENIN_PIC50>  (85) 
6.5452

>  <TRAIN>  (85) 
test

>  <TRAIN_CLASS>  (85) 
1

$$$$
b2a4g
     RDKit          2D

 35 39  0  0  0  0  0  0  0  0999 V2000
   -2.5154   -4.1200    0.0000 C   0  0  0  0  0  0  0  0  0  0  0  0
   -3.9817   -3.8037    0.0000 C   0  0  0  0  0  0  0  0  0  0  0  0
   -4.4408   -2.3757    0.0000 N   0  0  0  0  0  0  0  0  0  0  0  0
   -3.4337   -1.2640    0.0000 C   0  0  0  0  0  0  0  0  0  0  0  0
   -1.9675   -1.5804    0.0000 C   0  0  0  0  0  0  0  0  0  0  0  0
   -1.5083   -3.0084    0.0000 N   0  0  0  0  0  0  0  0  0  0  0  0
   -0.0421   -3.3247    0.0000 C   0  0  0  0  0  0  0  0  0  0  0  0
    0.4171   -4.7527    0.0000 O   0  0  0  0  0  0  0  0  0  0  0  0
    0.9650   -2.2131    0.0000 C   0  0  0  0  0  0  0  0  0  0  0  0
    2.4563   -2.3744    0.0000 C   0  0  0  0  0  0  0  0  0  0  0  0
    3.3343   -3.5907    0.0000 N   0  0  0  0  0  0  0  0  0  0  0  0
    4.8265   -3.4384    0.0000 C   0  0  0  0  0  0  0  0  0  0  0  0
    5.4408   -2.0700    0.0000 C   0  0  0  0  0  0  0  0  0  0  0  0
    4.5629   -0.8538    0.0000 C   0  0  0  0  0  0  0  0  0  0  0  0
    3.0706   -1.0060    0.0000 C   0  0  0  0  0  0  0  0  0  0  0  0
    1.9590    0.0011    0.0000 N   0  0  0  0  0  0  0  0  0  0  0  0
    2.1203    1.4924    0.0000 C   0  0  0  0  0  0  0  0  0  0  0  0
    0.9095    2.3778    0.0000 C   0  0  0  0  0  0  0  0  0  0  0  0
    1.0709    3.8691    0.0000 C   0  0  0  0  0  0  0  0  0  0  0  0
    2.4430    4.4750    0.0000 C   0  0  0  0  0  0  0  0  0  0  0  0
    3.6539    3.5896    0.0000 C   0  0  0  0  0  0  0  0  0  0  0  0
    3.4925    2.0983    0.0000 C   0  0  0  0  0  0  0  0  0  0  0  0
    0.6577   -0.7449    0.0000 C   0  0  0  0  0  0  0  0  0  0  0  0
   -0.7108   -0.1306    0.0000 O   0  0  0  0  0  0  0  0  0  0  0  0
   -0.8630    1.3616    0.0000 C   0  0  0  0  0  0  0  0  0  0  0  0
   -2.2315    1.9759    0.0000 C   0  0  0  0  0  0  0  0  0  0  0  0
   -2.3837    3.4682    0.0000 C   0  0  0  0  0  0  0  0  0  0  0  0
   -1.1675    4.3461    0.0000 C   0  0  0  0  0  0  0  0  0  0  0  0
    0.2010    3.7318    0.0000 C   0  0  0  0  0  0  0  0  0  0  0  0
    0.3532    2.2396    0.0000 C   0  0  0  0  0  0  0  0  0  0  0  0
    1.8296    1.9747    0.0000 C   0  0  0  0  0  0  0  0  0  0  0  0
   -3.4477    1.0979    0.0000 C   0  0  0  0  0  0  0  0  0  0  0  0
   -3.8929    0.1640    0.0000 C   0  0  0  0  0  0  0  0  0  0  0  0
   -5.3592    0.4803    0.0000 O   0  0  0  0  0  0  0  0  0  0  0  0
   -5.8183    1.9083    0.0000 C   0  0  0  0  0  0  0  0  0  0  0  0
  1  2  1  0
  1  6  1  0
  2  3  1  0
  3  4  1  0
  4  5  1  0
  4 33  1  0
  5  6  1  0
  6  7  1  0
  7  8  2  0
  7  9  1  0
  9 10  1  0
  9 23  2  0
 10 11  2  0
 10 15  1  0
 11 12  1  0
 12 13  2  0
 13 14  1  0
 14 15  2  0
 15 16  1  0
 16 17  1  0
 16 23  1  0
 17 18  2  0
 17 22  1  0
 18 19  1  0
 19 20  2  0
 20 21  1  0
 21 22  2  0
 23 24  1  0
 24 25  1  0
 25 26  2  0
 25 30  1  0
 26 27  1  0
 26 32  1  0
 27 28  2  0
 28 29  1  0
 29 30  2  0
 30 31  1  0
 33 34  1  0
 34 35  1  0
M  END
>  <EXTREG>  (86) 
b2a4g

>  <ID>  (86) 
b2a4g

>  <RENIN_IC50>  (86) 
0.2900

>  <ORIGIN>  (86) 
BMCL2011A

>  <RENIN_PIC50>  (86) 
6.5376

>  <TRAIN>  (86) 
train

>  <TRAIN_CLASS>  (86) 
0

$$$$
b2a3d
     RDKit          2D

 32 36  0  0  0  0  0  0  0  0999 V2000
    3.4020   -3.6323    0.0000 C   0  0  0  0  0  0  0  0  0  0  0  0
    2.7765   -4.9957    0.0000 C   0  0  0  0  0  0  0  0  0  0  0  0
    1.2830   -5.1356    0.0000 N   0  0  0  0  0  0  0  0  0  0  0  0
    0.4151   -3.9122    0.0000 C   0  0  0  0  0  0  0  0  0  0  0  0
    1.0406   -2.5489    0.0000 C   0  0  0  0  0  0  0  0  0  0  0  0
    2.5341   -2.4089    0.0000 N   0  0  0  0  0  0  0  0  0  0  0  0
    3.1596   -1.0456    0.0000 C   0  0  0  0  0  0  0  0  0  0  0  0
    4.6531   -0.9056    0.0000 O   0  0  0  0  0  0  0  0  0  0  0  0
    2.2917    0.1778    0.0000 C   0  0  0  0  0  0  0  0  0  0  0  0
    2.7713    1.5991    0.0000 C   0  0  0  0  0  0  0  0  0  0  0  0
    4.1484    2.1937    0.0000 N   0  0  0  0  0  0  0  0  0  0  0  0
    4.3220    3.6836    0.0000 C   0  0  0  0  0  0  0  0  0  0  0  0
    3.1185    4.5789    0.0000 C   0  0  0  0  0  0  0  0  0  0  0  0
    1.7414    3.9843    0.0000 C   0  0  0  0  0  0  0  0  0  0  0  0
    1.5678    2.4944    0.0000 C   0  0  0  0  0  0  0  0  0  0  0  0
    0.3444    1.6265    0.0000 N   0  0  0  0  0  0  0  0  0  0  0  0
   -1.0769    2.1061    0.0000 C   0  0  0  0  0  0  0  0  0  0  0  0
   -1.3722    3.5767    0.0000 C   0  0  0  0  0  0  0  0  0  0  0  0
   -2.7934    4.0563    0.0000 C   0  0  0  0  0  0  0  0  0  0  0  0
   -3.9194    3.0653    0.0000 C   0  0  0  0  0  0  0  0  0  0  0  0
   -3.6241    1.5946    0.0000 C   0  0  0  0  0  0  0  0  0  0  0  0
   -2.2029    1.1150    0.0000 C   0  0  0  0  0  0  0  0  0  0  0  0
    0.7918    0.1947    0.0000 C   0  0  0  0  0  0  0  0  0  0  0  0
   -0.1036   -1.0088    0.0000 O   0  0  0  0  0  0  0  0  0  0  0  0
   -1.5935   -0.8351    0.0000 C   0  0  0  0  0  0  0  0  0  0  0  0
   -2.1881    0.5420    0.0000 C   0  0  0  0  0  0  0  0  0  0  0  0
   -3.6780    0.7156    0.0000 C   0  0  0  0  0  0  0  0  0  0  0  0
   -4.5733   -0.4879    0.0000 C   0  0  0  0  0  0  0  0  0  0  0  0
   -3.9787   -1.8650    0.0000 C   0  0  0  0  0  0  0  0  0  0  0  0
   -2.4888   -2.0386    0.0000 C   0  0  0  0  0  0  0  0  0  0  0  0
   -1.8942   -3.4157    0.0000 F   0  0  0  0  0  0  0  0  0  0  0  0
   -4.8740   -3.0685    0.0000 F   0  0  0  0  0  0  0  0  0  0  0  0
  1  2  1  0
  1  6  1  0
  2  3  1  0
  3  4  1  0
  4  5  1  0
  5  6  1  0
  6  7  1  0
  7  8  2  0
  7  9  1  0
  9 10  1  0
  9 23  2  0
 10 11  2  0
 10 15  1  0
 11 12  1  0
 12 13  2  0
 13 14  1  0
 14 15  2  0
 15 16  1  0
 16 17  1  0
 16 23  1  0
 17 18  2  0
 17 22  1  0
 18 19  1  0
 19 20  2  0
 20 21  1  0
 21 22  2  0
 23 24  1  0
 24 25  1  0
 25 26  2  0
 25 30  1  0
 26 27  1  0
 27 28  2  0
 28 29  1  0
 29 30  2  0
 29 32  1  0
 30 31  1  0
M  END
>  <EXTREG>  (87) 
b2a3d

>  <ID>  (87) 
b2a3d

>  <RENIN_IC50>  (87) 
0.3100

>  <ORIGIN>  (87) 
BMCL2011A

>  <RENIN_PIC50>  (87) 
6.5086

>  <TRAIN>  (87) 
test

>  <TRAIN_CLASS>  (87) 
1

$$$$
b2a7b
     RDKit          2D

 33 37  0  0  0  0  0  0  0  0999 V2000
   -5.1634    0.4199    0.0000 C   0  0  0  0  0  0  0  0  0  0  0  0
   -5.6803    1.8280    0.0000 C   0  0  0  0  0  0  0  0  0  0  0  0
   -4.7193    2.9798    0.0000 N   0  0  0  0  0  0  0  0  0  0  0  0
   -3.2414    2.7234    0.0000 C   0  0  0  0  0  0  0  0  0  0  0  0
   -2.7244    1.3153    0.0000 C   0  0  0  0  0  0  0  0  0  0  0  0
   -3.6854    0.1636    0.0000 N   0  0  0  0  0  0  0  0  0  0  0  0
   -3.1685   -1.2446    0.0000 C   0  0  0  0  0  0  0  0  0  0  0  0
   -4.1295   -2.3963    0.0000 O   0  0  0  0  0  0  0  0  0  0  0  0
   -1.6905   -1.5009    0.0000 C   0  0  0  0  0  0  0  0  0  0  0  0
   -1.0292   -2.8473    0.0000 C   0  0  0  0  0  0  0  0  0  0  0  0
   -1.5873   -4.2396    0.0000 C   0  0  0  0  0  0  0  0  0  0  0  0
   -0.6605   -5.4190    0.0000 C   0  0  0  0  0  0  0  0  0  0  0  0
    0.8243   -5.2062    0.0000 N   0  0  0  0  0  0  0  0  0  0  0  0
    1.3823   -3.8138    0.0000 C   0  0  0  0  0  0  0  0  0  0  0  0
    0.4556   -2.6344    0.0000 C   0  0  0  0  0  0  0  0  0  0  0  0
    0.7119   -1.1564    0.0000 N   0  0  0  0  0  0  0  0  0  0  0  0
    2.0583   -0.4951    0.0000 C   0  0  0  0  0  0  0  0  0  0  0  0
    3.3042   -1.3305    0.0000 C   0  0  0  0  0  0  0  0  0  0  0  0
    4.6505   -0.6692    0.0000 C   0  0  0  0  0  0  0  0  0  0  0  0
    4.7510    0.8275    0.0000 C   0  0  0  0  0  0  0  0  0  0  0  0
    3.5051    1.6628    0.0000 C   0  0  0  0  0  0  0  0  0  0  0  0
    2.1588    1.0015    0.0000 C   0  0  0  0  0  0  0  0  0  0  0  0
   -0.6144   -0.4559    0.0000 C   0  0  0  0  0  0  0  0  0  0  0  0
   -0.8273    1.0289    0.0000 O   0  0  0  0  0  0  0  0  0  0  0  0
    0.3521    1.9557    0.0000 C   0  0  0  0  0  0  0  0  0  0  0  0
    1.7444    1.3976    0.0000 C   0  0  0  0  0  0  0  0  0  0  0  0
    2.9239    2.3244    0.0000 C   0  0  0  0  0  0  0  0  0  0  0  0
    2.7110    3.8092    0.0000 C   0  0  0  0  0  0  0  0  0  0  0  0
    1.3187    4.3673    0.0000 C   0  0  0  0  0  0  0  0  0  0  0  0
    0.1392    3.4405    0.0000 C   0  0  0  0  0  0  0  0  0  0  0  0
   -1.2531    3.9985    0.0000 C   0  0  0  0  0  0  0  0  0  0  0  0
    4.3162    1.7664    0.0000 F   0  0  0  0  0  0  0  0  0  0  0  0
    2.8672   -3.6009    0.0000 Cl  0  0  0  0  0  0  0  0  0  0  0  0
  1  2  1  0
  1  6  1  0
  2  3  1  0
  3  4  1  0
  4  5  1  0
  5  6  1  0
  6  7  1  0
  7  8  2  0
  7  9  1  0
  9 10  1  0
  9 23  2  0
 10 11  2  0
 10 15  1  0
 11 12  1  0
 12 13  2  0
 13 14  1  0
 14 15  2  0
 14 33  1  0
 15 16  1  0
 16 17  1  0
 16 23  1  0
 17 18  2  0
 17 22  1  0
 18 19  1  0
 19 20  2  0
 20 21  1  0
 21 22  2  0
 23 24  1  0
 24 25  1  0
 25 26  2  0
 25 30  1  0
 26 27  1  0
 27 28  2  0
 27 32  1  0
 28 29  1  0
 29 30  2  0
 30 31  1  0
M  END
>  <EXTREG>  (88) 
b2a7b

>  <ID>  (88) 
b2a7b

>  <RENIN_IC50>  (88) 
0.3200

>  <ORIGIN>  (88) 
BMCL2011A

>  <RENIN_PIC50>  (88) 
6.4949

>  <TRAIN>  (88) 
train

>  <TRAIN_CLASS>  (88) 
0

$$$$
b3a7c
     RDKit          2D

 35 39  0  0  0  0  0  0  0  0999 V2000
   -1.3925   -4.8365    0.0000 C   0  0  0  0  0  0  0  0  0  0  0  0
   -2.8709   -5.0901    0.0000 C   0  0  0  0  0  0  0  0  0  0  0  0
   -3.8297   -3.9366    0.0000 N   0  0  0  0  0  0  0  0  0  0  0  0
   -3.3101   -2.5295    0.0000 C   0  0  0  0  0  0  0  0  0  0  0  0
   -1.8317   -2.2759    0.0000 C   0  0  0  0  0  0  0  0  0  0  0  0
   -0.8729   -3.4294    0.0000 N   0  0  0  0  0  0  0  0  0  0  0  0
    0.6055   -3.1758    0.0000 C   0  0  0  0  0  0  0  0  0  0  0  0
    1.5643   -4.3293    0.0000 O   0  0  0  0  0  0  0  0  0  0  0  0
    1.1251   -1.7687    0.0000 C   0  0  0  0  0  0  0  0  0  0  0  0
    2.5689   -1.3619    0.0000 C   0  0  0  0  0  0  0  0  0  0  0  0
    3.8372   -2.1627    0.0000 C   0  0  0  0  0  0  0  0  0  0  0  0
    5.1649   -1.4647    0.0000 N   0  0  0  0  0  0  0  0  0  0  0  0
    5.2243    0.0341    0.0000 C   0  0  0  0  0  0  0  0  0  0  0  0
    3.9559    0.8349    0.0000 C   0  0  0  0  0  0  0  0  0  0  0  0
    2.6282    0.1369    0.0000 C   0  0  0  0  0  0  0  0  0  0  0  0
    1.2211    0.6565    0.0000 N   0  0  0  0  0  0  0  0  0  0  0  0
    0.8143    2.1003    0.0000 C   0  0  0  0  0  0  0  0  0  0  0  0
    1.8613    3.1744    0.0000 C   0  0  0  0  0  0  0  0  0  0  0  0
    1.4546    4.6182    0.0000 C   0  0  0  0  0  0  0  0  0  0  0  0
    0.0009    4.9879    0.0000 C   0  0  0  0  0  0  0  0  0  0  0  0
   -1.0461    3.9137    0.0000 C   0  0  0  0  0  0  0  0  0  0  0  0
   -0.6394    2.4699    0.0000 C   0  0  0  0  0  0  0  0  0  0  0  0
    0.2921   -0.5212    0.0000 C   0  0  0  0  0  0  0  0  0  0  0  0
   -1.2067   -0.4619    0.0000 C   0  0  0  0  0  0  0  0  0  0  0  0
   -1.9048    0.8658    0.0000 C   0  0  0  0  0  0  0  0  0  0  0  0
   -1.1040    2.1341    0.0000 C   0  0  0  0  0  0  0  0  0  0  0  0
   -1.8020    3.4618    0.0000 C   0  0  0  0  0  0  0  0  0  0  0  0
   -3.3008    3.5212    0.0000 C   0  0  0  0  0  0  0  0  0  0  0  0
   -4.1016    2.2528    0.0000 C   0  0  0  0  0  0  0  0  0  0  0  0
   -3.4036    0.9251    0.0000 C   0  0  0  0  0  0  0  0  0  0  0  0
   -4.2044   -0.3432    0.0000 C   0  0  0  0  0  0  0  0  0  0  0  0
   -5.6005    2.3121    0.0000 F   0  0  0  0  0  0  0  0  0  0  0  0
    6.5519    0.7322    0.0000 O   0  0  0  0  0  0  0  0  0  0  0  0
    7.8203   -0.0686    0.0000 C   0  0  0  0  0  0  0  0  0  0  0  0
   -4.2690   -1.3759    0.0000 C   0  0  0  0  0  0  0  0  0  0  0  0
  1  2  1  0
  1  6  1  0
  2  3  1  0
  3  4  1  0
  4  5  1  0
  4 35  1  0
  5  6  1  0
  6  7  1  0
  7  8  2  0
  7  9  1  0
  9 10  1  0
  9 23  2  0
 10 11  2  0
 10 15  1  0
 11 12  1  0
 12 13  2  0
 13 14  1  0
 13 33  1  0
 14 15  2  0
 15 16  1  0
 16 17  1  0
 16 23  1  0
 17 18  1  0
 17 22  1  0
 18 19  1  0
 19 20  1  0
 20 21  1  0
 21 22  1  0
 23 24  1  0
 24 25  1  0
 25 26  2  0
 25 30  1  0
 26 27  1  0
 27 28  2  0
 28 29  1  0
 29 30  2  0
 29 32  1  0
 30 31  1  0
 33 34  1  0
M  END
>  <EXTREG>  (89) 
b3a7c

>  <ID>  (89) 
b3a7c

>  <RENIN_IC50>  (89) 
0.3200

>  <ORIGIN>  (89) 
BMCL2011B

>  <RENIN_PIC50>  (89) 
6.4949

>  <TRAIN>  (89) 
test

>  <TRAIN_CLASS>  (89) 
1

$$$$
b2a3jr
     RDKit          2D

 33 37  0  0  0  0  0  0  0  0999 V2000
    4.5716   -2.4719    0.0000 C   0  0  0  0  0  0  0  0  0  0  0  0
    4.4045   -3.9625    0.0000 C   0  0  0  0  0  0  0  0  0  0  0  0
    3.0300   -4.5631    0.0000 N   0  0  0  0  0  0  0  0  0  0  0  0
    1.8226   -3.6731    0.0000 C   0  0  0  0  0  0  0  0  0  0  0  0
    1.9897   -2.1824    0.0000 C   0  0  0  0  0  0  0  0  0  0  0  0
    3.3642   -1.5818    0.0000 N   0  0  0  0  0  0  0  0  0  0  0  0
    3.5313   -0.0912    0.0000 C   0  0  0  0  0  0  0  0  0  0  0  0
    4.9058    0.5095    0.0000 O   0  0  0  0  0  0  0  0  0  0  0  0
    2.3239    0.7989    0.0000 C   0  0  0  0  0  0  0  0  0  0  0  0
    2.3343    2.2989    0.0000 C   0  0  0  0  0  0  0  0  0  0  0  0
    3.4559    3.2948    0.0000 N   0  0  0  0  0  0  0  0  0  0  0  0
    3.1542    4.7642    0.0000 C   0  0  0  0  0  0  0  0  0  0  0  0
    1.7308    5.2375    0.0000 C   0  0  0  0  0  0  0  0  0  0  0  0
    0.6092    4.2416    0.0000 C   0  0  0  0  0  0  0  0  0  0  0  0
    0.9109    2.7722    0.0000 C   0  0  0  0  0  0  0  0  0  0  0  0
    0.0209    1.5648    0.0000 N   0  0  0  0  0  0  0  0  0  0  0  0
   -1.4791    1.5752    0.0000 C   0  0  0  0  0  0  0  0  0  0  0  0
   -2.2381    0.2814    0.0000 C   0  0  0  0  0  0  0  0  0  0  0  0
   -3.7380    0.2918    0.0000 C   0  0  0  0  0  0  0  0  0  0  0  0
   -4.4790    1.5960    0.0000 C   0  0  0  0  0  0  0  0  0  0  0  0
   -3.7201    2.8898    0.0000 C   0  0  0  0  0  0  0  0  0  0  0  0
   -2.2201    2.8794    0.0000 C   0  0  0  0  0  0  0  0  0  0  0  0
    0.8941    0.3452    0.0000 C   0  0  0  0  0  0  0  0  0  0  0  0
    0.4208   -1.0781    0.0000 O   0  0  0  0  0  0  0  0  0  0  0  0
   -1.0486   -1.3798    0.0000 C   0  0  0  0  0  0  0  0  0  0  0  0
   -2.0446   -0.2582    0.0000 C   0  0  0  0  0  0  0  0  0  0  0  0
   -3.5139   -0.5599    0.0000 C   0  0  0  0  0  0  0  0  0  0  0  0
   -3.9873   -1.9832    0.0000 C   0  0  0  0  0  0  0  0  0  0  0  0
   -2.9913   -3.1049    0.0000 C   0  0  0  0  0  0  0  0  0  0  0  0
   -1.5220   -2.8032    0.0000 C   0  0  0  0  0  0  0  0  0  0  0  0
   -0.5260   -3.9248    0.0000 C   0  0  0  0  0  0  0  0  0  0  0  0
   -5.4566   -2.2849    0.0000 F   0  0  0  0  0  0  0  0  0  0  0  0
   -4.5099    0.5617    0.0000 F   0  0  0  0  0  0  0  0  0  0  0  0
  1  2  1  0
  1  6  1  0
  2  3  1  0
  3  4  1  0
  4  5  1  0
  5  6  1  0
  6  7  1  0
  7  8  2  0
  7  9  1  0
  9 10  1  0
  9 23  2  0
 10 11  2  0
 10 15  1  0
 11 12  1  0
 12 13  2  0
 13 14  1  0
 14 15  2  0
 15 16  1  0
 16 17  1  0
 16 23  1  0
 17 18  2  0
 17 22  1  0
 18 19  1  0
 19 20  2  0
 20 21  1  0
 21 22  2  0
 23 24  1  0
 24 25  1  0
 25 26  2  0
 25 30  1  0
 26 27  1  0
 27 28  2  0
 27 33  1  0
 28 29  1  0
 28 32  1  0
 29 30  2  0
 30 31  1  0
M  END
>  <EXTREG>  (90) 
b2a3jr

>  <ID>  (90) 
b2a3jr

>  <RENIN_IC50>  (90) 
0.3220

>  <ORIGIN>  (90) 
BMCL2011A

>  <RENIN_PIC50>  (90) 
6.4921

>  <TRAIN>  (90) 
train

>  <TRAIN_CLASS>  (90) 
0

$$$$
b1i4i
     RDKit          2D

 34 38  0  0  0  0  0  0  0  0999 V2000
    5.2225   -1.2985    0.0000 C   0  0  0  0  0  0  0  0  0  0  0  0
    5.4206   -2.7854    0.0000 C   0  0  0  0  0  0  0  0  0  0  0  0
    4.2320   -3.7004    0.0000 N   0  0  0  0  0  0  0  0  0  0  0  0
    2.8453   -3.1285    0.0000 C   0  0  0  0  0  0  0  0  0  0  0  0
    2.6472   -1.6417    0.0000 C   0  0  0  0  0  0  0  0  0  0  0  0
    3.8358   -0.7266    0.0000 N   0  0  0  0  0  0  0  0  0  0  0  0
    3.6377    0.7602    0.0000 C   0  0  0  0  0  0  0  0  0  0  0  0
    4.8263    1.6752    0.0000 O   0  0  0  0  0  0  0  0  0  0  0  0
    2.2509    1.3321    0.0000 C   0  0  0  0  0  0  0  0  0  0  0  0
    1.8985    2.7901    0.0000 C   0  0  0  0  0  0  0  0  0  0  0  0
    2.7462    4.0276    0.0000 C   0  0  0  0  0  0  0  0  0  0  0  0
    2.0983    5.3805    0.0000 C   0  0  0  0  0  0  0  0  0  0  0  0
    0.6027    5.4958    0.0000 C   0  0  0  0  0  0  0  0  0  0  0  0
   -0.2450    4.2583    0.0000 C   0  0  0  0  0  0  0  0  0  0  0  0
    0.4029    2.9054    0.0000 C   0  0  0  0  0  0  0  0  0  0  0  0
   -0.1689    1.5187    0.0000 N   0  0  0  0  0  0  0  0  0  0  0  0
   -1.6269    1.1662    0.0000 C   0  0  0  0  0  0  0  0  0  0  0  0
   -2.6612    2.2527    0.0000 C   0  0  0  0  0  0  0  0  0  0  0  0
   -4.1192    1.9002    0.0000 N   0  0  0  0  0  0  0  0  0  0  0  0
   -4.5429    0.4613    0.0000 C   0  0  0  0  0  0  0  0  0  0  0  0
   -3.5087   -0.6251    0.0000 C   0  0  0  0  0  0  0  0  0  0  0  0
   -2.0507   -0.2727    0.0000 C   0  0  0  0  0  0  0  0  0  0  0  0
   -6.0009    0.1089    0.0000 O   0  0  0  0  0  0  0  0  0  0  0  0
   -7.0352    1.1953    0.0000 C   0  0  0  0  0  0  0  0  0  0  0  0
    0.9732    0.5463    0.0000 C   0  0  0  0  0  0  0  0  0  0  0  0
    0.8579   -0.9492    0.0000 C   0  0  0  0  0  0  0  0  0  0  0  0
   -0.4950   -1.5971    0.0000 C   0  0  0  0  0  0  0  0  0  0  0  0
   -0.6103   -3.0927    0.0000 C   0  0  0  0  0  0  0  0  0  0  0  0
   -1.9632   -3.7406    0.0000 C   0  0  0  0  0  0  0  0  0  0  0  0
   -3.2007   -2.8929    0.0000 C   0  0  0  0  0  0  0  0  0  0  0  0
   -3.0854   -1.3974    0.0000 C   0  0  0  0  0  0  0  0  0  0  0  0
   -1.7325   -0.7495    0.0000 C   0  0  0  0  0  0  0  0  0  0  0  0
   -2.0785   -5.2361    0.0000 F   0  0  0  0  0  0  0  0  0  0  0  0
    0.6272   -3.9404    0.0000 C   0  0  0  0  0  0  0  0  0  0  0  0
  1  2  1  0
  1  6  1  0
  2  3  1  0
  3  4  1  0
  4  5  1  0
  5  6  1  0
  6  7  1  0
  7  8  2  0
  7  9  1  0
  9 10  1  0
  9 25  2  0
 10 11  2  0
 10 15  1  0
 11 12  1  0
 12 13  2  0
 13 14  1  0
 14 15  2  0
 15 16  1  0
 16 17  1  0
 16 25  1  0
 17 18  2  0
 17 22  1  0
 18 19  1  0
 19 20  2  0
 20 21  1  0
 20 23  1  0
 21 22  2  0
 23 24  1  0
 25 26  1  0
 26 27  1  0
 27 28  2  0
 27 32  1  0
 28 29  1  0
 28 34  1  0
 29 30  2  0
 29 33  1  0
 30 31  1  0
 31 32  2  0
M  END
>  <EXTREG>  (91) 
b1i4i

>  <ID>  (91) 
b1i4i

>  <RENIN_IC50>  (91) 
0.3600

>  <ORIGIN>  (91) 
BMCL2010

>  <RENIN_PIC50>  (91) 
6.4437

>  <TRAIN>  (91) 
train

>  <TRAIN_CLASS>  (91) 
0

$$$$
b2a4d
     RDKit          2D

 34 38  0  0  0  0  0  0  0  0999 V2000
   -3.8874   -2.9362    0.0000 C   0  0  0  0  0  0  0  0  0  0  0  0
   -5.1644   -2.1492    0.0000 C   0  0  0  0  0  0  0  0  0  0  0  0
   -5.1214   -0.6498    0.0000 N   0  0  0  0  0  0  0  0  0  0  0  0
   -3.8014    0.0626    0.0000 C   0  0  0  0  0  0  0  0  0  0  0  0
   -2.5244   -0.7243    0.0000 C   0  0  0  0  0  0  0  0  0  0  0  0
   -2.5674   -2.2237    0.0000 N   0  0  0  0  0  0  0  0  0  0  0  0
   -1.2904   -3.0107    0.0000 C   0  0  0  0  0  0  0  0  0  0  0  0
   -1.3334   -4.5101    0.0000 O   0  0  0  0  0  0  0  0  0  0  0  0
    0.0296   -2.2982    0.0000 C   0  0  0  0  0  0  0  0  0  0  0  0
    1.3819   -2.9474    0.0000 C   0  0  0  0  0  0  0  0  0  0  0  0
    1.8043   -4.3867    0.0000 N   0  0  0  0  0  0  0  0  0  0  0  0
    3.2620   -4.7405    0.0000 C   0  0  0  0  0  0  0  0  0  0  0  0
    4.2972   -3.6550    0.0000 C   0  0  0  0  0  0  0  0  0  0  0  0
    3.8748   -2.2158    0.0000 C   0  0  0  0  0  0  0  0  0  0  0  0
    2.4171   -1.8619    0.0000 C   0  0  0  0  0  0  0  0  0  0  0  0
    1.7047   -0.5419    0.0000 N   0  0  0  0  0  0  0  0  0  0  0  0
    2.3539    0.8103    0.0000 C   0  0  0  0  0  0  0  0  0  0  0  0
    1.5074    2.0487    0.0000 C   0  0  0  0  0  0  0  0  0  0  0  0
    2.1565    3.4009    0.0000 C   0  0  0  0  0  0  0  0  0  0  0  0
    3.6522    3.5149    0.0000 C   0  0  0  0  0  0  0  0  0  0  0  0
    4.4987    2.2765    0.0000 C   0  0  0  0  0  0  0  0  0  0  0  0
    3.8495    0.9243    0.0000 C   0  0  0  0  0  0  0  0  0  0  0  0
    0.2291   -0.8116    0.0000 C   0  0  0  0  0  0  0  0  0  0  0  0
   -0.8563    0.2237    0.0000 O   0  0  0  0  0  0  0  0  0  0  0  0
   -0.5025    1.6814    0.0000 C   0  0  0  0  0  0  0  0  0  0  0  0
   -1.5880    2.7166    0.0000 C   0  0  0  0  0  0  0  0  0  0  0  0
   -1.2342    4.1743    0.0000 C   0  0  0  0  0  0  0  0  0  0  0  0
    0.2051    4.5967    0.0000 C   0  0  0  0  0  0  0  0  0  0  0  0
    1.2906    3.5614    0.0000 C   0  0  0  0  0  0  0  0  0  0  0  0
    0.9368    2.1038    0.0000 C   0  0  0  0  0  0  0  0  0  0  0  0
    2.2405    1.3619    0.0000 C   0  0  0  0  0  0  0  0  0  0  0  0
   -3.0273    2.2942    0.0000 C   0  0  0  0  0  0  0  0  0  0  0  0
   -3.7583    1.5620    0.0000 C   0  0  0  0  0  0  0  0  0  0  0  0
   -5.0353    2.3489    0.0000 O   0  0  0  0  0  0  0  0  0  0  0  0
  1  2  1  0
  1  6  1  0
  2  3  1  0
  3  4  1  0
  4  5  1  0
  4 33  1  0
  5  6  1  0
  6  7  1  0
  7  8  2  0
  7  9  1  0
  9 10  1  0
  9 23  2  0
 10 11  2  0
 10 15  1  0
 11 12  1  0
 12 13  2  0
 13 14  1  0
 14 15  2  0
 15 16  1  0
 16 17  1  0
 16 23  1  0
 17 18  1  0
 17 22  1  0
 18 19  1  0
 19 20  1  0
 20 21  1  0
 21 22  1  0
 23 24  1  0
 24 25  1  0
 25 26  2  0
 25 30  1  0
 26 27  1  0
 26 32  1  0
 27 28  2  0
 28 29  1  0
 29 30  2  0
 30 31  1  0
 33 34  1  0
M  END
>  <EXTREG>  (92) 
b2a4d

>  <ID>  (92) 
b2a4d

>  <RENIN_IC50>  (92) 
0.3900

>  <ORIGIN>  (92) 
BMCL2011A

>  <RENIN_PIC50>  (92) 
6.4089

>  <TRAIN>  (92) 
test

>  <TRAIN_CLASS>  (92) 
1

$$$$
b3a3e
     RDKit          2D

 32 36  0  0  0  0  0  0  0  0999 V2000
    4.9006   -1.3498    0.0000 C   0  0  0  0  0  0  0  0  0  0  0  0
    5.1152   -2.8343    0.0000 C   0  0  0  0  0  0  0  0  0  0  0  0
    3.9369   -3.7625    0.0000 N   0  0  0  0  0  0  0  0  0  0  0  0
    2.5439   -3.2061    0.0000 C   0  0  0  0  0  0  0  0  0  0  0  0
    2.3292   -1.7215    0.0000 C   0  0  0  0  0  0  0  0  0  0  0  0
    3.5076   -0.7934    0.0000 N   0  0  0  0  0  0  0  0  0  0  0  0
    3.2929    0.6912    0.0000 C   0  0  0  0  0  0  0  0  0  0  0  0
    4.4713    1.6194    0.0000 O   0  0  0  0  0  0  0  0  0  0  0  0
    1.8999    1.2476    0.0000 C   0  0  0  0  0  0  0  0  0  0  0  0
    1.5313    2.7016    0.0000 C   0  0  0  0  0  0  0  0  0  0  0  0
    2.3651    3.9484    0.0000 C   0  0  0  0  0  0  0  0  0  0  0  0
    1.7022    5.2940    0.0000 C   0  0  0  0  0  0  0  0  0  0  0  0
    0.2055    5.3927    0.0000 C   0  0  0  0  0  0  0  0  0  0  0  0
   -0.6284    4.1458    0.0000 N   0  0  0  0  0  0  0  0  0  0  0  0
    0.0345    2.8003    0.0000 C   0  0  0  0  0  0  0  0  0  0  0  0
   -0.5218    1.4073    0.0000 N   0  0  0  0  0  0  0  0  0  0  0  0
   -1.9758    1.0386    0.0000 C   0  0  0  0  0  0  0  0  0  0  0  0
   -3.0221    2.1135    0.0000 C   0  0  0  0  0  0  0  0  0  0  0  0
   -4.4761    1.7448    0.0000 C   0  0  0  0  0  0  0  0  0  0  0  0
   -4.8838    0.3013    0.0000 C   0  0  0  0  0  0  0  0  0  0  0  0
   -3.8376   -0.7735    0.0000 C   0  0  0  0  0  0  0  0  0  0  0  0
   -2.3836   -0.4049    0.0000 C   0  0  0  0  0  0  0  0  0  0  0  0
    0.6310    0.4477    0.0000 C   0  0  0  0  0  0  0  0  0  0  0  0
    0.5323   -1.0491    0.0000 O   0  0  0  0  0  0  0  0  0  0  0  0
   -0.8132   -1.7120    0.0000 C   0  0  0  0  0  0  0  0  0  0  0  0
   -2.0601   -0.8781    0.0000 C   0  0  0  0  0  0  0  0  0  0  0  0
   -3.4057   -1.5410    0.0000 C   0  0  0  0  0  0  0  0  0  0  0  0
   -3.5044   -3.0378    0.0000 C   0  0  0  0  0  0  0  0  0  0  0  0
   -2.2575   -3.8716    0.0000 C   0  0  0  0  0  0  0  0  0  0  0  0
   -0.9119   -3.2087    0.0000 C   0  0  0  0  0  0  0  0  0  0  0  0
    0.3349   -4.0426    0.0000 C   0  0  0  0  0  0  0  0  0  0  0  0
   -4.6526   -0.7072    0.0000 F   0  0  0  0  0  0  0  0  0  0  0  0
  1  2  1  0
  1  6  1  0
  2  3  1  0
  3  4  1  0
  4  5  1  0
  5  6  1  0
  6  7  1  0
  7  8  2  0
  7  9  1  0
  9 10  1  0
  9 23  2  0
 10 11  2  0
 10 15  1  0
 11 12  1  0
 12 13  2  0
 13 14  1  0
 14 15  2  0
 15 16  1  0
 16 17  1  0
 16 23  1  0
 17 18  2  0
 17 22  1  0
 18 19  1  0
 19 20  2  0
 20 21  1  0
 21 22  2  0
 23 24  1  0
 24 25  1  0
 25 26  2  0
 25 30  1  0
 26 27  1  0
 27 28  2  0
 27 32  1  0
 28 29  1  0
 29 30  2  0
 30 31  1  0
M  END
>  <EXTREG>  (93) 
b3a3e

>  <ID>  (93) 
b3a3e

>  <RENIN_IC50>  (93) 
0.3960

>  <ORIGIN>  (93) 
BMCL2011B

>  <RENIN_PIC50>  (93) 
6.4023

>  <TRAIN>  (93) 
train

>  <TRAIN_CLASS>  (93) 
0

$$$$
b1i2a
     RDKit          2D

 30 34  0  0  0  0  0  0  0  0999 V2000
    4.8318   -1.2466    0.0000 C   0  0  0  0  0  0  0  0  0  0  0  0
    5.1270   -2.7172    0.0000 C   0  0  0  0  0  0  0  0  0  0  0  0
    4.0010   -3.7083    0.0000 N   0  0  0  0  0  0  0  0  0  0  0  0
    2.5798   -3.2286    0.0000 C   0  0  0  0  0  0  0  0  0  0  0  0
    2.2845   -1.7580    0.0000 C   0  0  0  0  0  0  0  0  0  0  0  0
    3.4105   -0.7669    0.0000 N   0  0  0  0  0  0  0  0  0  0  0  0
    3.1153    0.7037    0.0000 C   0  0  0  0  0  0  0  0  0  0  0  0
    4.2413    1.6947    0.0000 O   0  0  0  0  0  0  0  0  0  0  0  0
    1.6940    1.1834    0.0000 C   0  0  0  0  0  0  0  0  0  0  0  0
    1.2467    2.6151    0.0000 C   0  0  0  0  0  0  0  0  0  0  0  0
    2.0113    3.9056    0.0000 C   0  0  0  0  0  0  0  0  0  0  0  0
    1.2761    5.2130    0.0000 C   0  0  0  0  0  0  0  0  0  0  0  0
   -0.2238    5.2300    0.0000 C   0  0  0  0  0  0  0  0  0  0  0  0
   -0.9885    3.9395    0.0000 C   0  0  0  0  0  0  0  0  0  0  0  0
   -0.2532    2.6321    0.0000 C   0  0  0  0  0  0  0  0  0  0  0  0
   -0.7329    1.2108    0.0000 N   0  0  0  0  0  0  0  0  0  0  0  0
   -2.1646    0.7634    0.0000 C   0  0  0  0  0  0  0  0  0  0  0  0
   -2.4930   -0.7002    0.0000 C   0  0  0  0  0  0  0  0  0  0  0  0
   -3.9248   -1.1475    0.0000 C   0  0  0  0  0  0  0  0  0  0  0  0
   -5.0281   -0.1313    0.0000 C   0  0  0  0  0  0  0  0  0  0  0  0
   -4.6996    1.3323    0.0000 C   0  0  0  0  0  0  0  0  0  0  0  0
   -3.2679    1.7797    0.0000 C   0  0  0  0  0  0  0  0  0  0  0  0
    0.4706    0.3155    0.0000 C   0  0  0  0  0  0  0  0  0  0  0  0
    0.4537   -1.1844    0.0000 O   0  0  0  0  0  0  0  0  0  0  0  0
   -0.8538   -1.9197    0.0000 C   0  0  0  0  0  0  0  0  0  0  0  0
   -0.8708   -3.4196    0.0000 C   0  0  0  0  0  0  0  0  0  0  0  0
   -2.1782   -4.1549    0.0000 C   0  0  0  0  0  0  0  0  0  0  0  0
   -3.4687   -3.3902    0.0000 C   0  0  0  0  0  0  0  0  0  0  0  0
   -3.4517   -1.8903    0.0000 C   0  0  0  0  0  0  0  0  0  0  0  0
   -2.1443   -1.1551    0.0000 C   0  0  0  0  0  0  0  0  0  0  0  0
  1  2  1  0
  1  6  1  0
  2  3  1  0
  3  4  1  0
  4  5  1  0
  5  6  1  0
  6  7  1  0
  7  8  2  0
  7  9  1  0
  9 10  1  0
  9 23  2  0
 10 11  2  0
 10 15  1  0
 11 12  1  0
 12 13  2  0
 13 14  1  0
 14 15  2  0
 15 16  1  0
 16 17  1  0
 16 23  1  0
 17 18  2  0
 17 22  1  0
 18 19  1  0
 19 20  2  0
 20 21  1  0
 21 22  2  0
 23 24  1  0
 24 25  1  0
 25 26  2  0
 25 30  1  0
 26 27  1  0
 27 28  2  0
 28 29  1  0
 29 30  2  0
M  END
>  <EXTREG>  (94) 
b1i2a

>  <ID>  (94) 
b1i2a

>  <RENIN_IC50>  (94) 
0.4200

>  <COMMENT>  (94) 
XRAY 3oqk 2.9 A

>  <ORIGIN>  (94) 
BMCL2010

>  <RENIN_PIC50>  (94) 
6.3768

>  <TRAIN>  (94) 
test

>  <TRAIN_CLASS>  (94) 
1

$$$$
b2a7c
     RDKit          2D

 34 38  0  0  0  0  0  0  0  0999 V2000
   -5.0860   -1.5072    0.0000 C   0  0  0  0  0  0  0  0  0  0  0  0
   -6.1039   -0.4053    0.0000 C   0  0  0  0  0  0  0  0  0  0  0  0
   -5.6586    1.0270    0.0000 N   0  0  0  0  0  0  0  0  0  0  0  0
   -4.1955    1.3576    0.0000 C   0  0  0  0  0  0  0  0  0  0  0  0
   -3.1776    0.2558    0.0000 C   0  0  0  0  0  0  0  0  0  0  0  0
   -3.6229   -1.1766    0.0000 N   0  0  0  0  0  0  0  0  0  0  0  0
   -2.6051   -2.2784    0.0000 C   0  0  0  0  0  0  0  0  0  0  0  0
   -3.0504   -3.7108    0.0000 O   0  0  0  0  0  0  0  0  0  0  0  0
   -1.1419   -1.9478    0.0000 C   0  0  0  0  0  0  0  0  0  0  0  0
   -0.0145   -2.9372    0.0000 C   0  0  0  0  0  0  0  0  0  0  0  0
    0.0046   -4.4371    0.0000 C   0  0  0  0  0  0  0  0  0  0  0  0
    1.3131   -5.1705    0.0000 C   0  0  0  0  0  0  0  0  0  0  0  0
    2.6025   -4.4040    0.0000 N   0  0  0  0  0  0  0  0  0  0  0  0
    2.5833   -2.9041    0.0000 C   0  0  0  0  0  0  0  0  0  0  0  0
    1.2748   -2.1707    0.0000 C   0  0  0  0  0  0  0  0  0  0  0  0
    0.9443   -0.7076    0.0000 N   0  0  0  0  0  0  0  0  0  0  0  0
    1.9337    0.4198    0.0000 C   0  0  0  0  0  0  0  0  0  0  0  0
    1.4520    1.8404    0.0000 C   0  0  0  0  0  0  0  0  0  0  0  0
    2.4414    2.9678    0.0000 C   0  0  0  0  0  0  0  0  0  0  0  0
    3.9125    2.6747    0.0000 C   0  0  0  0  0  0  0  0  0  0  0  0
    4.3941    1.2541    0.0000 C   0  0  0  0  0  0  0  0  0  0  0  0
    3.4048    0.1267    0.0000 C   0  0  0  0  0  0  0  0  0  0  0  0
   -0.5494   -0.5699    0.0000 C   0  0  0  0  0  0  0  0  0  0  0  0
   -1.3159    0.7195    0.0000 O   0  0  0  0  0  0  0  0  0  0  0  0
   -0.5825    2.0280    0.0000 C   0  0  0  0  0  0  0  0  0  0  0  0
    0.9173    2.0472    0.0000 C   0  0  0  0  0  0  0  0  0  0  0  0
    1.6507    3.3557    0.0000 C   0  0  0  0  0  0  0  0  0  0  0  0
    0.8842    4.6450    0.0000 C   0  0  0  0  0  0  0  0  0  0  0  0
   -0.6157    4.6259    0.0000 C   0  0  0  0  0  0  0  0  0  0  0  0
   -1.3490    3.3174    0.0000 C   0  0  0  0  0  0  0  0  0  0  0  0
   -2.8489    3.2982    0.0000 C   0  0  0  0  0  0  0  0  0  0  0  0
    3.1506    3.3748    0.0000 F   0  0  0  0  0  0  0  0  0  0  0  0
    3.8727   -2.1376    0.0000 C   0  0  0  0  0  0  0  0  0  0  0  0
    5.1812   -2.8709    0.0000 C   0  0  0  0  0  0  0  0  0  0  0  0
  1  2  1  0
  1  6  1  0
  2  3  1  0
  3  4  1  0
  4  5  1  0
  5  6  1  0
  6  7  1  0
  7  8  2  0
  7  9  1  0
  9 10  1  0
  9 23  2  0
 10 11  2  0
 10 15  1  0
 11 12  1  0
 12 13  2  0
 13 14  1  0
 14 15  2  0
 14 33  1  0
 15 16  1  0
 16 17  1  0
 16 23  1  0
 17 18  2  0
 17 22  1  0
 18 19  1  0
 19 20  2  0
 20 21  1  0
 21 22  2  0
 23 24  1  0
 24 25  1  0
 25 26  2  0
 25 30  1  0
 26 27  1  0
 27 28  2  0
 27 32  1  0
 28 29  1  0
 29 30  2  0
 30 31  1  0
 33 34  1  0
M  END
>  <EXTREG>  (95) 
b2a7c

>  <ID>  (95) 
b2a7c

>  <RENIN_IC50>  (95) 
0.4230

>  <ORIGIN>  (95) 
BMCL2011A

>  <RENIN_PIC50>  (95) 
6.3737

>  <TRAIN>  (95) 
train

>  <TRAIN_CLASS>  (95) 
0

$$$$
b2a4h
     RDKit          2D

 34 38  0  0  0  0  0  0  0  0999 V2000
   -3.8874   -2.9362    0.0000 C   0  0  0  0  0  0  0  0  0  0  0  0
   -5.1644   -2.1492    0.0000 C   0  0  0  0  0  0  0  0  0  0  0  0
   -5.1214   -0.6498    0.0000 N   0  0  0  0  0  0  0  0  0  0  0  0
   -3.8014    0.0626    0.0000 C   0  0  0  0  0  0  0  0  0  0  0  0
   -2.5244   -0.7243    0.0000 C   0  0  0  0  0  0  0  0  0  0  0  0
   -2.5674   -2.2237    0.0000 N   0  0  0  0  0  0  0  0  0  0  0  0
   -1.2904   -3.0107    0.0000 C   0  0  0  0  0  0  0  0  0  0  0  0
   -1.3334   -4.5101    0.0000 O   0  0  0  0  0  0  0  0  0  0  0  0
    0.0296   -2.2982    0.0000 C   0  0  0  0  0  0  0  0  0  0  0  0
    1.3819   -2.9474    0.0000 C   0  0  0  0  0  0  0  0  0  0  0  0
    1.8043   -4.3867    0.0000 N   0  0  0  0  0  0  0  0  0  0  0  0
    3.2620   -4.7405    0.0000 C   0  0  0  0  0  0  0  0  0  0  0  0
    4.2972   -3.6550    0.0000 C   0  0  0  0  0  0  0  0  0  0  0  0
    3.8748   -2.2158    0.0000 C   0  0  0  0  0  0  0  0  0  0  0  0
    2.4171   -1.8619    0.0000 C   0  0  0  0  0  0  0  0  0  0  0  0
    1.7047   -0.5419    0.0000 N   0  0  0  0  0  0  0  0  0  0  0  0
    2.3539    0.8103    0.0000 C   0  0  0  0  0  0  0  0  0  0  0  0
    1.5074    2.0487    0.0000 C   0  0  0  0  0  0  0  0  0  0  0  0
    2.1565    3.4009    0.0000 C   0  0  0  0  0  0  0  0  0  0  0  0
    3.6522    3.5149    0.0000 C   0  0  0  0  0  0  0  0  0  0  0  0
    4.4987    2.2765    0.0000 C   0  0  0  0  0  0  0  0  0  0  0  0
    3.8495    0.9243    0.0000 C   0  0  0  0  0  0  0  0  0  0  0  0
    0.2291   -0.8116    0.0000 C   0  0  0  0  0  0  0  0  0  0  0  0
   -0.8563    0.2237    0.0000 O   0  0  0  0  0  0  0  0  0  0  0  0
   -0.5025    1.6814    0.0000 C   0  0  0  0  0  0  0  0  0  0  0  0
   -1.5880    2.7166    0.0000 C   0  0  0  0  0  0  0  0  0  0  0  0
   -1.2342    4.1743    0.0000 C   0  0  0  0  0  0  0  0  0  0  0  0
    0.2051    4.5967    0.0000 C   0  0  0  0  0  0  0  0  0  0  0  0
    1.2906    3.5614    0.0000 C   0  0  0  0  0  0  0  0  0  0  0  0
    0.9368    2.1038    0.0000 C   0  0  0  0  0  0  0  0  0  0  0  0
    2.2405    1.3619    0.0000 C   0  0  0  0  0  0  0  0  0  0  0  0
   -3.0273    2.2942    0.0000 C   0  0  0  0  0  0  0  0  0  0  0  0
   -3.7583    1.5620    0.0000 C   0  0  0  0  0  0  0  0  0  0  0  0
   -5.0353    2.3489    0.0000 C   0  0  0  0  0  0  0  0  0  0  0  0
  1  2  1  0
  1  6  1  0
  2  3  1  0
  3  4  1  0
  4  5  1  0
  4 33  1  0
  5  6  1  0
  6  7  1  0
  7  8  2  0
  7  9  1  0
  9 10  1  0
  9 23  2  0
 10 11  2  0
 10 15  1  0
 11 12  1  0
 12 13  2  0
 13 14  1  0
 14 15  2  0
 15 16  1  0
 16 17  1  0
 16 23  1  0
 17 18  2  0
 17 22  1  0
 18 19  1  0
 19 20  2  0
 20 21  1  0
 21 22  2  0
 23 24  1  0
 24 25  1  0
 25 26  2  0
 25 30  1  0
 26 27  1  0
 26 32  1  0
 27 28  2  0
 28 29  1  0
 29 30  2  0
 30 31  1  0
 33 34  1  0
M  END
>  <EXTREG>  (96) 
b2a4h

>  <ID>  (96) 
b2a4h

>  <RENIN_IC50>  (96) 
0.4550

>  <ORIGIN>  (96) 
BMCL2011A

>  <RENIN_PIC50>  (96) 
6.3420

>  <TRAIN>  (96) 
test

>  <TRAIN_CLASS>  (96) 
1

$$$$
b2a6a
     RDKit          2D

 31 35  0  0  0  0  0  0  0  0999 V2000
   -4.8712    0.8500    0.0000 C   0  0  0  0  0  0  0  0  0  0  0  0
   -5.2454    2.3026    0.0000 C   0  0  0  0  0  0  0  0  0  0  0  0
   -4.1745    3.3529    0.0000 N   0  0  0  0  0  0  0  0  0  0  0  0
   -2.7294    2.9507    0.0000 C   0  0  0  0  0  0  0  0  0  0  0  0
   -2.3553    1.4981    0.0000 C   0  0  0  0  0  0  0  0  0  0  0  0
   -3.4262    0.4478    0.0000 N   0  0  0  0  0  0  0  0  0  0  0  0
   -3.0520   -1.0048    0.0000 C   0  0  0  0  0  0  0  0  0  0  0  0
   -4.1229   -2.0552    0.0000 O   0  0  0  0  0  0  0  0  0  0  0  0
   -1.6069   -1.4071    0.0000 C   0  0  0  0  0  0  0  0  0  0  0  0
   -1.0830   -2.8126    0.0000 C   0  0  0  0  0  0  0  0  0  0  0  0
   -1.7769   -4.1424    0.0000 C   0  0  0  0  0  0  0  0  0  0  0  0
   -0.9722   -5.4083    0.0000 C   0  0  0  0  0  0  0  0  0  0  0  0
    0.5265   -5.3443    0.0000 N   0  0  0  0  0  0  0  0  0  0  0  0
    1.2204   -4.0145    0.0000 C   0  0  0  0  0  0  0  0  0  0  0  0
    0.4157   -2.7486    0.0000 C   0  0  0  0  0  0  0  0  0  0  0  0
    0.8179   -1.3036    0.0000 N   0  0  0  0  0  0  0  0  0  0  0  0
    2.2234   -0.7796    0.0000 C   0  0  0  0  0  0  0  0  0  0  0  0
    3.3799   -1.7348    0.0000 C   0  0  0  0  0  0  0  0  0  0  0  0
    4.7855   -1.2109    0.0000 C   0  0  0  0  0  0  0  0  0  0  0  0
    5.0345    0.2683    0.0000 C   0  0  0  0  0  0  0  0  0  0  0  0
    3.8779    1.2235    0.0000 C   0  0  0  0  0  0  0  0  0  0  0  0
    2.4724    0.6996    0.0000 C   0  0  0  0  0  0  0  0  0  0  0  0
   -0.4321   -0.4744    0.0000 C   0  0  0  0  0  0  0  0  0  0  0  0
   -0.4961    1.0242    0.0000 O   0  0  0  0  0  0  0  0  0  0  0  0
    0.7698    1.8289    0.0000 C   0  0  0  0  0  0  0  0  0  0  0  0
    2.0996    1.1350    0.0000 C   0  0  0  0  0  0  0  0  0  0  0  0
    3.3655    1.9397    0.0000 C   0  0  0  0  0  0  0  0  0  0  0  0
    3.3015    3.4384    0.0000 C   0  0  0  0  0  0  0  0  0  0  0  0
    1.9717    4.1323    0.0000 C   0  0  0  0  0  0  0  0  0  0  0  0
    0.7058    3.3276    0.0000 C   0  0  0  0  0  0  0  0  0  0  0  0
   -0.6241    4.0215    0.0000 C   0  0  0  0  0  0  0  0  0  0  0  0
  1  2  1  0
  1  6  1  0
  2  3  1  0
  3  4  1  0
  4  5  1  0
  5  6  1  0
  6  7  1  0
  7  8  2  0
  7  9  1  0
  9 10  1  0
  9 23  2  0
 10 11  2  0
 10 15  1  0
 11 12  1  0
 12 13  2  0
 13 14  1  0
 14 15  2  0
 15 16  1  0
 16 17  1  0
 16 23  1  0
 17 18  2  0
 17 22  1  0
 18 19  1  0
 19 20  2  0
 20 21  1  0
 21 22  2  0
 23 24  1  0
 24 25  1  0
 25 26  2  0
 25 30  1  0
 26 27  1  0
 27 28  2  0
 28 29  1  0
 29 30  2  0
 30 31  1  0
M  END
>  <EXTREG>  (97) 
b2a6a

>  <ID>  (97) 
b2a6a

>  <RENIN_IC50>  (97) 
0.4940

>  <ORIGIN>  (97) 
BMCL2011A

>  <RENIN_PIC50>  (97) 
6.3063

>  <TRAIN>  (97) 
train

>  <TRAIN_CLASS>  (97) 
0

$$$$
b3a3g
     RDKit          2D

 33 37  0  0  0  0  0  0  0  0999 V2000
    4.2855   -2.7864    0.0000 C   0  0  0  0  0  0  0  0  0  0  0  0
    3.9896   -4.2570    0.0000 C   0  0  0  0  0  0  0  0  0  0  0  0
    2.5682   -4.7360    0.0000 N   0  0  0  0  0  0  0  0  0  0  0  0
    1.4426   -3.7445    0.0000 C   0  0  0  0  0  0  0  0  0  0  0  0
    1.7385   -2.2739    0.0000 C   0  0  0  0  0  0  0  0  0  0  0  0
    3.1599   -1.7949    0.0000 N   0  0  0  0  0  0  0  0  0  0  0  0
    3.4558   -0.3244    0.0000 C   0  0  0  0  0  0  0  0  0  0  0  0
    4.8773    0.1546    0.0000 O   0  0  0  0  0  0  0  0  0  0  0  0
    2.3302    0.6671    0.0000 C   0  0  0  0  0  0  0  0  0  0  0  0
    2.4708    2.1605    0.0000 C   0  0  0  0  0  0  0  0  0  0  0  0
    3.6746    3.0553    0.0000 C   0  0  0  0  0  0  0  0  0  0  0  0
    3.5016    4.5453    0.0000 C   0  0  0  0  0  0  0  0  0  0  0  0
    2.1247    5.1405    0.0000 C   0  0  0  0  0  0  0  0  0  0  0  0
    0.9209    4.2457    0.0000 N   0  0  0  0  0  0  0  0  0  0  0  0
    1.0939    2.7557    0.0000 C   0  0  0  0  0  0  0  0  0  0  0  0
    0.1024    1.6301    0.0000 N   0  0  0  0  0  0  0  0  0  0  0  0
   -1.3910    1.7706    0.0000 C   0  0  0  0  0  0  0  0  0  0  0  0
   -2.0160    3.1342    0.0000 C   0  0  0  0  0  0  0  0  0  0  0  0
   -3.5094    3.2748    0.0000 C   0  0  0  0  0  0  0  0  0  0  0  0
   -4.3778    2.0517    0.0000 C   0  0  0  0  0  0  0  0  0  0  0  0
   -3.7528    0.6881    0.0000 C   0  0  0  0  0  0  0  0  0  0  0  0
   -2.2594    0.5476    0.0000 C   0  0  0  0  0  0  0  0  0  0  0  0
    0.8665    0.3393    0.0000 C   0  0  0  0  0  0  0  0  0  0  0  0
    0.2713   -1.0376    0.0000 O   0  0  0  0  0  0  0  0  0  0  0  0
   -1.2186   -1.2106    0.0000 C   0  0  0  0  0  0  0  0  0  0  0  0
   -2.1135   -0.0068    0.0000 C   0  0  0  0  0  0  0  0  0  0  0  0
   -3.6035   -0.1798    0.0000 C   0  0  0  0  0  0  0  0  0  0  0  0
   -4.1986   -1.5567    0.0000 C   0  0  0  0  0  0  0  0  0  0  0  0
   -3.3038   -2.7605    0.0000 C   0  0  0  0  0  0  0  0  0  0  0  0
   -1.8138   -2.5875    0.0000 C   0  0  0  0  0  0  0  0  0  0  0  0
   -0.9190   -3.7913    0.0000 C   0  0  0  0  0  0  0  0  0  0  0  0
   -3.8989   -4.1374    0.0000 F   0  0  0  0  0  0  0  0  0  0  0  0
   -4.4983    1.0241    0.0000 F   0  0  0  0  0  0  0  0  0  0  0  0
  1  2  1  0
  1  6  1  0
  2  3  1  0
  3  4  1  0
  4  5  1  0
  5  6  1  0
  6  7  1  0
  7  8  2  0
  7  9  1  0
  9 10  1  0
  9 23  2  0
 10 11  2  0
 10 15  1  0
 11 12  1  0
 12 13  2  0
 13 14  1  0
 14 15  2  0
 15 16  1  0
 16 17  1  0
 16 23  1  0
 17 18  2  0
 17 22  1  0
 18 19  1  0
 19 20  2  0
 20 21  1  0
 21 22  2  0
 23 24  1  0
 24 25  1  0
 25 26  2  0
 25 30  1  0
 26 27  1  0
 27 28  2  0
 27 33  1  0
 28 29  1  0
 29 30  2  0
 29 32  1  0
 30 31  1  0
M  END
>  <EXTREG>  (98) 
b3a3g

>  <ID>  (98) 
b3a3g

>  <RENIN_IC50>  (98) 
0.5040

>  <ORIGIN>  (98) 
BMCL2011B

>  <RENIN_PIC50>  (98) 
6.2976

>  <TRAIN>  (98) 
train

>  <TRAIN_CLASS>  (98) 
0

$$$$
b2a3c
     RDKit          2D

 31 35  0  0  0  0  0  0  0  0999 V2000
   -4.8712    0.8500    0.0000 C   0  0  0  0  0  0  0  0  0  0  0  0
   -5.2454    2.3026    0.0000 C   0  0  0  0  0  0  0  0  0  0  0  0
   -4.1745    3.3529    0.0000 N   0  0  0  0  0  0  0  0  0  0  0  0
   -2.7294    2.9507    0.0000 C   0  0  0  0  0  0  0  0  0  0  0  0
   -2.3553    1.4981    0.0000 C   0  0  0  0  0  0  0  0  0  0  0  0
   -3.4262    0.4478    0.0000 N   0  0  0  0  0  0  0  0  0  0  0  0
   -3.0520   -1.0048    0.0000 C   0  0  0  0  0  0  0  0  0  0  0  0
   -4.1229   -2.0552    0.0000 O   0  0  0  0  0  0  0  0  0  0  0  0
   -1.6069   -1.4071    0.0000 C   0  0  0  0  0  0  0  0  0  0  0  0
   -1.0830   -2.8126    0.0000 C   0  0  0  0  0  0  0  0  0  0  0  0
   -1.7769   -4.1424    0.0000 N   0  0  0  0  0  0  0  0  0  0  0  0
   -0.9722   -5.4083    0.0000 C   0  0  0  0  0  0  0  0  0  0  0  0
    0.5265   -5.3443    0.0000 C   0  0  0  0  0  0  0  0  0  0  0  0
    1.2204   -4.0145    0.0000 C   0  0  0  0  0  0  0  0  0  0  0  0
    0.4157   -2.7486    0.0000 C   0  0  0  0  0  0  0  0  0  0  0  0
    0.8179   -1.3036    0.0000 N   0  0  0  0  0  0  0  0  0  0  0  0
    2.2234   -0.7796    0.0000 C   0  0  0  0  0  0  0  0  0  0  0  0
    3.3799   -1.7348    0.0000 C   0  0  0  0  0  0  0  0  0  0  0  0
    4.7855   -1.2109    0.0000 C   0  0  0  0  0  0  0  0  0  0  0  0
    5.0345    0.2683    0.0000 C   0  0  0  0  0  0  0  0  0  0  0  0
    3.8779    1.2235    0.0000 C   0  0  0  0  0  0  0  0  0  0  0  0
    2.4724    0.6996    0.0000 C   0  0  0  0  0  0  0  0  0  0  0  0
   -0.4321   -0.4744    0.0000 C   0  0  0  0  0  0  0  0  0  0  0  0
   -0.4961    1.0242    0.0000 O   0  0  0  0  0  0  0  0  0  0  0  0
    0.7698    1.8289    0.0000 C   0  0  0  0  0  0  0  0  0  0  0  0
    2.0996    1.1350    0.0000 C   0  0  0  0  0  0  0  0  0  0  0  0
    3.3655    1.9397    0.0000 C   0  0  0  0  0  0  0  0  0  0  0  0
    3.3015    3.4384    0.0000 C   0  0  0  0  0  0  0  0  0  0  0  0
    1.9717    4.1323    0.0000 C   0  0  0  0  0  0  0  0  0  0  0  0
    0.7058    3.3276    0.0000 C   0  0  0  0  0  0  0  0  0  0  0  0
   -0.6241    4.0215    0.0000 F   0  0  0  0  0  0  0  0  0  0  0  0
  1  2  1  0
  1  6  1  0
  2  3  1  0
  3  4  1  0
  4  5  1  0
  5  6  1  0
  6  7  1  0
  7  8  2  0
  7  9  1  0
  9 10  1  0
  9 23  2  0
 10 11  2  0
 10 15  1  0
 11 12  1  0
 12 13  2  0
 13 14  1  0
 14 15  2  0
 15 16  1  0
 16 17  1  0
 16 23  1  0
 17 18  2  0
 17 22  1  0
 18 19  1  0
 19 20  2  0
 20 21  1  0
 21 22  2  0
 23 24  1  0
 24 25  1  0
 25 26  2  0
 25 30  1  0
 26 27  1  0
 27 28  2  0
 28 29  1  0
 29 30  2  0
 30 31  1  0
M  END
>  <EXTREG>  (99) 
b2a3c

>  <ID>  (99) 
b2a3c

>  <RENIN_IC50>  (99) 
0.5130

>  <ORIGIN>  (99) 
BMCL2011A

>  <RENIN_PIC50>  (99) 
6.2899

>  <TRAIN>  (99) 
train

>  <TRAIN_CLASS>  (99) 
0

$$$$
b2a7e
     RDKit          2D

 33 37  0  0  0  0  0  0  0  0999 V2000
   -5.0839   -0.6435    0.0000 C   0  0  0  0  0  0  0  0  0  0  0  0
   -5.8936    0.6192    0.0000 C   0  0  0  0  0  0  0  0  0  0  0  0
   -5.2050    1.9518    0.0000 N   0  0  0  0  0  0  0  0  0  0  0  0
   -3.7066    2.0217    0.0000 C   0  0  0  0  0  0  0  0  0  0  0  0
   -2.8969    0.7590    0.0000 C   0  0  0  0  0  0  0  0  0  0  0  0
   -3.5855   -0.5736    0.0000 N   0  0  0  0  0  0  0  0  0  0  0  0
   -2.7758   -1.8362    0.0000 C   0  0  0  0  0  0  0  0  0  0  0  0
   -3.4645   -3.1688    0.0000 O   0  0  0  0  0  0  0  0  0  0  0  0
   -1.2774   -1.7663    0.0000 C   0  0  0  0  0  0  0  0  0  0  0  0
   -0.3402   -2.9375    0.0000 C   0  0  0  0  0  0  0  0  0  0  0  0
   -0.5833   -4.4176    0.0000 C   0  0  0  0  0  0  0  0  0  0  0  0
    0.5770   -5.3683    0.0000 C   0  0  0  0  0  0  0  0  0  0  0  0
    1.9804   -4.8388    0.0000 N   0  0  0  0  0  0  0  0  0  0  0  0
    2.2235   -3.3586    0.0000 C   0  0  0  0  0  0  0  0  0  0  0  0
    1.0633   -2.4079    0.0000 C   0  0  0  0  0  0  0  0  0  0  0  0
    0.9934   -0.9096    0.0000 N   0  0  0  0  0  0  0  0  0  0  0  0
    2.1645    0.0277    0.0000 C   0  0  0  0  0  0  0  0  0  0  0  0
    3.5617   -0.5179    0.0000 C   0  0  0  0  0  0  0  0  0  0  0  0
    4.7329    0.4194    0.0000 C   0  0  0  0  0  0  0  0  0  0  0  0
    4.5067    1.9022    0.0000 C   0  0  0  0  0  0  0  0  0  0  0  0
    3.1095    2.4478    0.0000 C   0  0  0  0  0  0  0  0  0  0  0  0
    1.9383    1.5106    0.0000 C   0  0  0  0  0  0  0  0  0  0  0  0
   -0.4533   -0.5130    0.0000 C   0  0  0  0  0  0  0  0  0  0  0  0
   -0.9828    0.8904    0.0000 O   0  0  0  0  0  0  0  0  0  0  0  0
   -0.0321    2.0507    0.0000 C   0  0  0  0  0  0  0  0  0  0  0  0
   -0.5616    3.4541    0.0000 C   0  0  0  0  0  0  0  0  0  0  0  0
    0.3890    4.6144    0.0000 C   0  0  0  0  0  0  0  0  0  0  0  0
    1.8692    4.3712    0.0000 C   0  0  0  0  0  0  0  0  0  0  0  0
    2.3987    2.9678    0.0000 C   0  0  0  0  0  0  0  0  0  0  0  0
    1.4480    1.8075    0.0000 C   0  0  0  0  0  0  0  0  0  0  0  0
    2.3014    0.5739    0.0000 C   0  0  0  0  0  0  0  0  0  0  0  0
   -2.0418    3.6973    0.0000 C   0  0  0  0  0  0  0  0  0  0  0  0
    3.6270   -2.8291    0.0000 Cl  0  0  0  0  0  0  0  0  0  0  0  0
  1  2  1  0
  1  6  1  0
  2  3  1  0
  3  4  1  0
  4  5  1  0
  5  6  1  0
  6  7  1  0
  7  8  2  0
  7  9  1  0
  9 10  1  0
  9 23  2  0
 10 11  2  0
 10 15  1  0
 11 12  1  0
 12 13  2  0
 13 14  1  0
 14 15  2  0
 14 33  1  0
 15 16  1  0
 16 17  1  0
 16 23  1  0
 17 18  2  0
 17 22  1  0
 18 19  1  0
 19 20  2  0
 20 21  1  0
 21 22  2  0
 23 24  1  0
 24 25  1  0
 25 26  2  0
 25 30  1  0
 26 27  1  0
 26 32  1  0
 27 28  2  0
 28 29  1  0
 29 30  2  0
 30 31  1  0
M  END
>  <EXTREG>  (100) 
b2a7e

>  <ID>  (100) 
b2a7e

>  <RENIN_IC50>  (100) 
0.5170

>  <ORIGIN>  (100) 
BMCL2011A

>  <RENIN_PIC50>  (100) 
6.2865

>  <TRAIN>  (100) 
train

>  <TRAIN_CLASS>  (100) 
0

$$$$
b3a5f
     RDKit          2D

 31 35  0  0  0  0  0  0  0  0999 V2000
   -4.8712    0.8500    0.0000 C   0  0  0  0  0  0  0  0  0  0  0  0
   -5.2454    2.3026    0.0000 C   0  0  0  0  0  0  0  0  0  0  0  0
   -4.1745    3.3529    0.0000 N   0  0  0  0  0  0  0  0  0  0  0  0
   -2.7294    2.9507    0.0000 C   0  0  0  0  0  0  0  0  0  0  0  0
   -2.3553    1.4981    0.0000 C   0  0  0  0  0  0  0  0  0  0  0  0
   -3.4262    0.4478    0.0000 N   0  0  0  0  0  0  0  0  0  0  0  0
   -3.0520   -1.0048    0.0000 C   0  0  0  0  0  0  0  0  0  0  0  0
   -4.1229   -2.0552    0.0000 O   0  0  0  0  0  0  0  0  0  0  0  0
   -1.6069   -1.4071    0.0000 C   0  0  0  0  0  0  0  0  0  0  0  0
   -1.0830   -2.8126    0.0000 C   0  0  0  0  0  0  0  0  0  0  0  0
   -1.7769   -4.1424    0.0000 C   0  0  0  0  0  0  0  0  0  0  0  0
   -0.9722   -5.4083    0.0000 N   0  0  0  0  0  0  0  0  0  0  0  0
    0.5265   -5.3443    0.0000 C   0  0  0  0  0  0  0  0  0  0  0  0
    1.2204   -4.0145    0.0000 C   0  0  0  0  0  0  0  0  0  0  0  0
    0.4157   -2.7486    0.0000 C   0  0  0  0  0  0  0  0  0  0  0  0
    0.8179   -1.3036    0.0000 N   0  0  0  0  0  0  0  0  0  0  0  0
    2.2234   -0.7796    0.0000 C   0  0  0  0  0  0  0  0  0  0  0  0
    3.3799   -1.7348    0.0000 C   0  0  0  0  0  0  0  0  0  0  0  0
    4.7855   -1.2109    0.0000 C   0  0  0  0  0  0  0  0  0  0  0  0
    5.0345    0.2683    0.0000 C   0  0  0  0  0  0  0  0  0  0  0  0
    3.8779    1.2235    0.0000 C   0  0  0  0  0  0  0  0  0  0  0  0
    2.4724    0.6996    0.0000 C   0  0  0  0  0  0  0  0  0  0  0  0
   -0.4321   -0.4744    0.0000 C   0  0  0  0  0  0  0  0  0  0  0  0
   -0.4961    1.0242    0.0000 C   0  0  0  0  0  0  0  0  0  0  0  0
    0.7698    1.8289    0.0000 C   0  0  0  0  0  0  0  0  0  0  0  0
    2.0996    1.1350    0.0000 C   0  0  0  0  0  0  0  0  0  0  0  0
    3.3655    1.9397    0.0000 C   0  0  0  0  0  0  0  0  0  0  0  0
    3.3015    3.4384    0.0000 C   0  0  0  0  0  0  0  0  0  0  0  0
    1.9717    4.1323    0.0000 C   0  0  0  0  0  0  0  0  0  0  0  0
    0.7058    3.3276    0.0000 C   0  0  0  0  0  0  0  0  0  0  0  0
   -0.6241    4.0215    0.0000 C   0  0  0  0  0  0  0  0  0  0  0  0
  1  2  1  0
  1  6  1  0
  2  3  1  0
  3  4  1  0
  4  5  1  0
  5  6  1  0
  6  7  1  0
  7  8  2  0
  7  9  1  0
  9 10  1  0
  9 23  2  0
 10 11  2  0
 10 15  1  0
 11 12  1  0
 12 13  2  0
 13 14  1  0
 14 15  2  0
 15 16  1  0
 16 17  1  0
 16 23  1  0
 17 18  2  0
 17 22  1  0
 18 19  1  0
 19 20  2  0
 20 21  1  0
 21 22  2  0
 23 24  1  0
 24 25  1  0
 25 26  2  0
 25 30  1  0
 26 27  1  0
 27 28  2  0
 28 29  1  0
 29 30  2  0
 30 31  1  0
M  END
>  <EXTREG>  (101) 
b3a5f

>  <ID>  (101) 
b3a5f

>  <RENIN_IC50>  (101) 
0.5200

>  <ORIGIN>  (101) 
BMCL2011B

>  <RENIN_PIC50>  (101) 
6.2840

>  <TRAIN>  (101) 
train

>  <TRAIN_CLASS>  (101) 
0

$$$$
b2a5h
     RDKit          2D

 34 38  0  0  0  0  0  0  0  0999 V2000
    1.0092   -4.8013    0.0000 C   0  0  0  0  0  0  0  0  0  0  0  0
   -0.1555   -5.7465    0.0000 C   0  0  0  0  0  0  0  0  0  0  0  0
   -1.5564   -5.2105    0.0000 N   0  0  0  0  0  0  0  0  0  0  0  0
   -1.7927   -3.7293    0.0000 C   0  0  0  0  0  0  0  0  0  0  0  0
   -0.6281   -2.7840    0.0000 C   0  0  0  0  0  0  0  0  0  0  0  0
    0.7729   -3.3200    0.0000 N   0  0  0  0  0  0  0  0  0  0  0  0
    1.9376   -2.3747    0.0000 C   0  0  0  0  0  0  0  0  0  0  0  0
    3.3386   -2.9107    0.0000 O   0  0  0  0  0  0  0  0  0  0  0  0
    1.7013   -0.8934    0.0000 C   0  0  0  0  0  0  0  0  0  0  0  0
    2.7608    0.1684    0.0000 C   0  0  0  0  0  0  0  0  0  0  0  0
    4.2588    0.0916    0.0000 N   0  0  0  0  0  0  0  0  0  0  0  0
    5.0744    1.3505    0.0000 C   0  0  0  0  0  0  0  0  0  0  0  0
    4.3919    2.6862    0.0000 C   0  0  0  0  0  0  0  0  0  0  0  0
    2.8939    2.7631    0.0000 C   0  0  0  0  0  0  0  0  0  0  0  0
    2.0783    1.5041    0.0000 C   0  0  0  0  0  0  0  0  0  0  0  0
    0.5970    1.2679    0.0000 N   0  0  0  0  0  0  0  0  0  0  0  0
   -0.4648    2.3273    0.0000 C   0  0  0  0  0  0  0  0  0  0  0  0
   -0.0782    3.7767    0.0000 C   0  0  0  0  0  0  0  0  0  0  0  0
   -1.1400    4.8361    0.0000 C   0  0  0  0  0  0  0  0  0  0  0  0
   -2.5885    4.4463    0.0000 C   0  0  0  0  0  0  0  0  0  0  0  0
   -2.9751    2.9970    0.0000 C   0  0  0  0  0  0  0  0  0  0  0  0
   -1.9133    1.9375    0.0000 C   0  0  0  0  0  0  0  0  0  0  0  0
    0.3640   -0.2139    0.0000 C   0  0  0  0  0  0  0  0  0  0  0  0
   -0.9717   -0.8964    0.0000 C   0  0  0  0  0  0  0  0  0  0  0  0
   -2.2306   -0.0808    0.0000 C   0  0  0  0  0  0  0  0  0  0  0  0
   -2.1538    1.4172    0.0000 C   0  0  0  0  0  0  0  0  0  0  0  0
   -3.4127    2.2327    0.0000 C   0  0  0  0  0  0  0  0  0  0  0  0
   -4.7485    1.5503    0.0000 C   0  0  0  0  0  0  0  0  0  0  0  0
   -4.8253    0.0522    0.0000 C   0  0  0  0  0  0  0  0  0  0  0  0
   -3.5664   -0.7633    0.0000 C   0  0  0  0  0  0  0  0  0  0  0  0
   -3.6432   -2.2613    0.0000 C   0  0  0  0  0  0  0  0  0  0  0  0
   -6.1611   -0.6302    0.0000 F   0  0  0  0  0  0  0  0  0  0  0  0
    6.5724    1.2736    0.0000 O   0  0  0  0  0  0  0  0  0  0  0  0
    7.2549   -0.0621    0.0000 C   0  0  0  0  0  0  0  0  0  0  0  0
  1  2  1  0
  1  6  1  0
  2  3  1  0
  3  4  1  0
  4  5  1  0
  5  6  1  0
  6  7  1  0
  7  8  2  0
  7  9  1  0
  9 10  1  0
  9 23  2  0
 10 11  2  0
 10 15  1  0
 11 12  1  0
 12 13  2  0
 12 33  1  0
 13 14  1  0
 14 15  2  0
 15 16  1  0
 16 17  1  0
 16 23  1  0
 17 18  2  0
 17 22  1  0
 18 19  1  0
 19 20  2  0
 20 21  1  0
 21 22  2  0
 23 24  1  0
 24 25  1  0
 25 26  2  0
 25 30  1  0
 26 27  1  0
 27 28  2  0
 28 29  1  0
 29 30  2  0
 29 32  1  0
 30 31  1  0
 33 34  1  0
M  END
>  <EXTREG>  (102) 
b2a5h

>  <ID>  (102) 
b2a5h

>  <RENIN_IC50>  (102) 
0.5900

>  <ORIGIN>  (102) 
BMCL2011A

>  <RENIN_PIC50>  (102) 
6.2291

>  <TRAIN>  (102) 
train

>  <TRAIN_CLASS>  (102) 
0

$$$$
b3a5d
     RDKit          2D

 33 37  0  0  0  0  0  0  0  0999 V2000
    4.2855   -2.7864    0.0000 C   0  0  0  0  0  0  0  0  0  0  0  0
    3.9896   -4.2570    0.0000 C   0  0  0  0  0  0  0  0  0  0  0  0
    2.5682   -4.7360    0.0000 N   0  0  0  0  0  0  0  0  0  0  0  0
    1.4426   -3.7445    0.0000 C   0  0  0  0  0  0  0  0  0  0  0  0
    1.7385   -2.2739    0.0000 C   0  0  0  0  0  0  0  0  0  0  0  0
    3.1599   -1.7949    0.0000 N   0  0  0  0  0  0  0  0  0  0  0  0
    3.4558   -0.3244    0.0000 C   0  0  0  0  0  0  0  0  0  0  0  0
    4.8773    0.1546    0.0000 O   0  0  0  0  0  0  0  0  0  0  0  0
    2.3302    0.6671    0.0000 C   0  0  0  0  0  0  0  0  0  0  0  0
    2.4708    2.1605    0.0000 C   0  0  0  0  0  0  0  0  0  0  0  0
    3.6746    3.0553    0.0000 C   0  0  0  0  0  0  0  0  0  0  0  0
    3.5016    4.5453    0.0000 N   0  0  0  0  0  0  0  0  0  0  0  0
    2.1247    5.1405    0.0000 C   0  0  0  0  0  0  0  0  0  0  0  0
    0.9209    4.2457    0.0000 C   0  0  0  0  0  0  0  0  0  0  0  0
    1.0939    2.7557    0.0000 C   0  0  0  0  0  0  0  0  0  0  0  0
    0.1024    1.6301    0.0000 N   0  0  0  0  0  0  0  0  0  0  0  0
   -1.3910    1.7706    0.0000 C   0  0  0  0  0  0  0  0  0  0  0  0
   -2.2594    0.5476    0.0000 C   0  0  0  0  0  0  0  0  0  0  0  0
   -3.7528    0.6881    0.0000 C   0  0  0  0  0  0  0  0  0  0  0  0
   -4.3778    2.0517    0.0000 C   0  0  0  0  0  0  0  0  0  0  0  0
   -3.5094    3.2748    0.0000 C   0  0  0  0  0  0  0  0  0  0  0  0
   -2.0160    3.1342    0.0000 C   0  0  0  0  0  0  0  0  0  0  0  0
    0.8665    0.3393    0.0000 C   0  0  0  0  0  0  0  0  0  0  0  0
    0.2713   -1.0376    0.0000 O   0  0  0  0  0  0  0  0  0  0  0  0
   -1.2186   -1.2106    0.0000 C   0  0  0  0  0  0  0  0  0  0  0  0
   -1.8138   -2.5875    0.0000 C   0  0  0  0  0  0  0  0  0  0  0  0
   -3.3038   -2.7605    0.0000 C   0  0  0  0  0  0  0  0  0  0  0  0
   -4.1986   -1.5567    0.0000 C   0  0  0  0  0  0  0  0  0  0  0  0
   -3.6035   -0.1798    0.0000 C   0  0  0  0  0  0  0  0  0  0  0  0
   -2.1135   -0.0068    0.0000 C   0  0  0  0  0  0  0  0  0  0  0  0
   -4.4983    1.0241    0.0000 F   0  0  0  0  0  0  0  0  0  0  0  0
   -3.8989   -4.1374    0.0000 F   0  0  0  0  0  0  0  0  0  0  0  0
   -0.9190   -3.7913    0.0000 C   0  0  0  0  0  0  0  0  0  0  0  0
  1  2  1  0
  1  6  1  0
  2  3  1  0
  3  4  1  0
  4  5  1  0
  5  6  1  0
  6  7  1  0
  7  8  2  0
  7  9  1  0
  9 10  1  0
  9 23  2  0
 10 11  2  0
 10 15  1  0
 11 12  1  0
 12 13  2  0
 13 14  1  0
 14 15  2  0
 15 16  1  0
 16 17  1  0
 16 23  1  0
 17 18  2  0
 17 22  1  0
 18 19  1  0
 19 20  2  0
 20 21  1  0
 21 22  2  0
 23 24  1  0
 24 25  1  0
 25 26  2  0
 25 30  1  0
 26 27  1  0
 26 33  1  0
 27 28  2  0
 27 32  1  0
 28 29  1  0
 29 30  2  0
 29 31  1  0
M  END
>  <EXTREG>  (103) 
b3a5d

>  <ID>  (103) 
b3a5d

>  <RENIN_IC50>  (103) 
0.6500

>  <ORIGIN>  (103) 
BMCL2011B

>  <RENIN_PIC50>  (103) 
6.1871

>  <TRAIN>  (103) 
train

>  <TRAIN_CLASS>  (103) 
0

$$$$
b1i2d
     RDKit          2D

 32 36  0  0  0  0  0  0  0  0999 V2000
   -4.3349   -2.2776    0.0000 C   0  0  0  0  0  0  0  0  0  0  0  0
   -5.4859   -1.3158    0.0000 C   0  0  0  0  0  0  0  0  0  0  0  0
   -5.2284    0.1620    0.0000 N   0  0  0  0  0  0  0  0  0  0  0  0
   -3.8199    0.6778    0.0000 C   0  0  0  0  0  0  0  0  0  0  0  0
   -2.6689   -0.2840    0.0000 C   0  0  0  0  0  0  0  0  0  0  0  0
   -2.9264   -1.7618    0.0000 N   0  0  0  0  0  0  0  0  0  0  0  0
   -1.7754   -2.7236    0.0000 C   0  0  0  0  0  0  0  0  0  0  0  0
   -2.0328   -4.2013    0.0000 O   0  0  0  0  0  0  0  0  0  0  0  0
   -0.3669   -2.2077    0.0000 C   0  0  0  0  0  0  0  0  0  0  0  0
    0.8784   -3.0440    0.0000 C   0  0  0  0  0  0  0  0  0  0  0  0
    1.0902   -4.5290    0.0000 C   0  0  0  0  0  0  0  0  0  0  0  0
    2.4821   -5.0881    0.0000 C   0  0  0  0  0  0  0  0  0  0  0  0
    3.6622   -4.1622    0.0000 C   0  0  0  0  0  0  0  0  0  0  0  0
    3.4504   -2.6772    0.0000 C   0  0  0  0  0  0  0  0  0  0  0  0
    2.0585   -2.1181    0.0000 C   0  0  0  0  0  0  0  0  0  0  0  0
    1.5427   -0.7096    0.0000 N   0  0  0  0  0  0  0  0  0  0  0  0
    2.3789    0.5356    0.0000 C   0  0  0  0  0  0  0  0  0  0  0  0
    1.7187    1.8825    0.0000 C   0  0  0  0  0  0  0  0  0  0  0  0
    2.5549    3.1277    0.0000 C   0  0  0  0  0  0  0  0  0  0  0  0
    4.0515    3.0261    0.0000 C   0  0  0  0  0  0  0  0  0  0  0  0
    4.7118    1.6793    0.0000 C   0  0  0  0  0  0  0  0  0  0  0  0
    3.8755    0.4340    0.0000 C   0  0  0  0  0  0  0  0  0  0  0  0
    0.0437   -0.7650    0.0000 C   0  0  0  0  0  0  0  0  0  0  0  0
   -0.8822    0.4151    0.0000 O   0  0  0  0  0  0  0  0  0  0  0  0
   -0.3231    1.8071    0.0000 C   0  0  0  0  0  0  0  0  0  0  0  0
   -1.2490    2.9872    0.0000 C   0  0  0  0  0  0  0  0  0  0  0  0
   -0.6899    4.3791    0.0000 C   0  0  0  0  0  0  0  0  0  0  0  0
    0.7951    4.5909    0.0000 C   0  0  0  0  0  0  0  0  0  0  0  0
    1.7210    3.4107    0.0000 C   0  0  0  0  0  0  0  0  0  0  0  0
    1.1619    2.0188    0.0000 C   0  0  0  0  0  0  0  0  0  0  0  0
   -2.7340    2.7754    0.0000 O   0  0  0  0  0  0  0  0  0  0  0  0
   -3.6598    3.9556    0.0000 C   0  0  0  0  0  0  0  0  0  0  0  0
  1  2  1  0
  1  6  1  0
  2  3  1  0
  3  4  1  0
  4  5  1  0
  5  6  1  0
  6  7  1  0
  7  8  2  0
  7  9  1  0
  9 10  1  0
  9 23  2  0
 10 11  2  0
 10 15  1  0
 11 12  1  0
 12 13  2  0
 13 14  1  0
 14 15  2  0
 15 16  1  0
 16 17  1  0
 16 23  1  0
 17 18  2  0
 17 22  1  0
 18 19  1  0
 19 20  2  0
 20 21  1  0
 21 22  2  0
 23 24  1  0
 24 25  1  0
 25 26  2  0
 25 30  1  0
 26 27  1  0
 26 31  1  0
 27 28  2  0
 28 29  1  0
 29 30  2  0
 31 32  1  0
M  END
>  <EXTREG>  (104) 
b1i2d

>  <ID>  (104) 
b1i2d

>  <RENIN_IC50>  (104) 
0.6800

>  <ORIGIN>  (104) 
BMCL2010

>  <RENIN_PIC50>  (104) 
6.1675

>  <TRAIN>  (104) 
train

>  <TRAIN_CLASS>  (104) 
0

$$$$
b2a3br
     RDKit          2D

 32 36  0  0  0  0  0  0  0  0999 V2000
    4.9006   -1.3498    0.0000 C   0  0  0  0  0  0  0  0  0  0  0  0
    5.1152   -2.8343    0.0000 C   0  0  0  0  0  0  0  0  0  0  0  0
    3.9369   -3.7625    0.0000 N   0  0  0  0  0  0  0  0  0  0  0  0
    2.5439   -3.2061    0.0000 C   0  0  0  0  0  0  0  0  0  0  0  0
    2.3292   -1.7215    0.0000 C   0  0  0  0  0  0  0  0  0  0  0  0
    3.5076   -0.7934    0.0000 N   0  0  0  0  0  0  0  0  0  0  0  0
    3.2929    0.6912    0.0000 C   0  0  0  0  0  0  0  0  0  0  0  0
    4.4713    1.6194    0.0000 O   0  0  0  0  0  0  0  0  0  0  0  0
    1.8999    1.2476    0.0000 C   0  0  0  0  0  0  0  0  0  0  0  0
    1.5313    2.7016    0.0000 C   0  0  0  0  0  0  0  0  0  0  0  0
    2.3651    3.9484    0.0000 N   0  0  0  0  0  0  0  0  0  0  0  0
    1.7022    5.2940    0.0000 C   0  0  0  0  0  0  0  0  0  0  0  0
    0.2055    5.3927    0.0000 C   0  0  0  0  0  0  0  0  0  0  0  0
   -0.6284    4.1458    0.0000 C   0  0  0  0  0  0  0  0  0  0  0  0
    0.0345    2.8003    0.0000 C   0  0  0  0  0  0  0  0  0  0  0  0
   -0.5218    1.4073    0.0000 N   0  0  0  0  0  0  0  0  0  0  0  0
   -1.9758    1.0386    0.0000 C   0  0  0  0  0  0  0  0  0  0  0  0
   -2.3836   -0.4049    0.0000 C   0  0  0  0  0  0  0  0  0  0  0  0
   -3.8376   -0.7735    0.0000 C   0  0  0  0  0  0  0  0  0  0  0  0
   -4.8838    0.3013    0.0000 C   0  0  0  0  0  0  0  0  0  0  0  0
   -4.4761    1.7448    0.0000 C   0  0  0  0  0  0  0  0  0  0  0  0
   -3.0221    2.1135    0.0000 C   0  0  0  0  0  0  0  0  0  0  0  0
    0.6310    0.4477    0.0000 C   0  0  0  0  0  0  0  0  0  0  0  0
    0.5323   -1.0491    0.0000 O   0  0  0  0  0  0  0  0  0  0  0  0
   -0.8132   -1.7120    0.0000 C   0  0  0  0  0  0  0  0  0  0  0  0
   -0.9119   -3.2087    0.0000 C   0  0  0  0  0  0  0  0  0  0  0  0
   -2.2575   -3.8716    0.0000 C   0  0  0  0  0  0  0  0  0  0  0  0
   -3.5044   -3.0378    0.0000 C   0  0  0  0  0  0  0  0  0  0  0  0
   -3.4057   -1.5410    0.0000 C   0  0  0  0  0  0  0  0  0  0  0  0
   -2.0601   -0.8781    0.0000 C   0  0  0  0  0  0  0  0  0  0  0  0
   -4.6526   -0.7072    0.0000 C   0  0  0  0  0  0  0  0  0  0  0  0
    0.3349   -4.0426    0.0000 C   0  0  0  0  0  0  0  0  0  0  0  0
  1  2  1  0
  1  6  1  0
  2  3  1  0
  3  4  1  0
  4  5  1  0
  5  6  1  0
  6  7  1  0
  7  8  2  0
  7  9  1  0
  9 10  1  0
  9 23  2  0
 10 11  2  0
 10 15  1  0
 11 12  1  0
 12 13  2  0
 13 14  1  0
 14 15  2  0
 15 16  1  0
 16 17  1  0
 16 23  1  0
 17 18  2  0
 17 22  1  0
 18 19  1  0
 19 20  2  0
 20 21  1  0
 21 22  2  0
 23 24  1  0
 24 25  1  0
 25 26  2  0
 25 30  1  0
 26 27  1  0
 26 32  1  0
 27 28  2  0
 28 29  1  0
 29 30  2  0
 29 31  1  0
M  END
>  <EXTREG>  (105) 
b2a3br

>  <ID>  (105) 
b2a3br

>  <RENIN_IC50>  (105) 
0.6920

>  <ORIGIN>  (105) 
BMCL2011A

>  <RENIN_PIC50>  (105) 
6.1599

>  <TRAIN>  (105) 
train

>  <TRAIN_CLASS>  (105) 
0

$$$$
b2a4f
     RDKit          2D

 35 39  0  0  0  0  0  0  0  0999 V2000
   -2.5154   -4.1200    0.0000 C   0  0  0  0  0  0  0  0  0  0  0  0
   -3.9817   -3.8037    0.0000 C   0  0  0  0  0  0  0  0  0  0  0  0
   -4.4408   -2.3757    0.0000 N   0  0  0  0  0  0  0  0  0  0  0  0
   -3.4337   -1.2640    0.0000 C   0  0  0  0  0  0  0  0  0  0  0  0
   -1.9675   -1.5804    0.0000 C   0  0  0  0  0  0  0  0  0  0  0  0
   -1.5083   -3.0084    0.0000 N   0  0  0  0  0  0  0  0  0  0  0  0
   -0.0421   -3.3247    0.0000 C   0  0  0  0  0  0  0  0  0  0  0  0
    0.4171   -4.7527    0.0000 O   0  0  0  0  0  0  0  0  0  0  0  0
    0.9650   -2.2131    0.0000 C   0  0  0  0  0  0  0  0  0  0  0  0
    2.4563   -2.3744    0.0000 C   0  0  0  0  0  0  0  0  0  0  0  0
    3.3343   -3.5907    0.0000 N   0  0  0  0  0  0  0  0  0  0  0  0
    4.8265   -3.4384    0.0000 C   0  0  0  0  0  0  0  0  0  0  0  0
    5.4408   -2.0700    0.0000 C   0  0  0  0  0  0  0  0  0  0  0  0
    4.5629   -0.8538    0.0000 C   0  0  0  0  0  0  0  0  0  0  0  0
    3.0706   -1.0060    0.0000 C   0  0  0  0  0  0  0  0  0  0  0  0
    1.9590    0.0011    0.0000 N   0  0  0  0  0  0  0  0  0  0  0  0
    2.1203    1.4924    0.0000 C   0  0  0  0  0  0  0  0  0  0  0  0
    0.9095    2.3778    0.0000 C   0  0  0  0  0  0  0  0  0  0  0  0
    1.0709    3.8691    0.0000 C   0  0  0  0  0  0  0  0  0  0  0  0
    2.4430    4.4750    0.0000 C   0  0  0  0  0  0  0  0  0  0  0  0
    3.6539    3.5896    0.0000 C   0  0  0  0  0  0  0  0  0  0  0  0
    3.4925    2.0983    0.0000 C   0  0  0  0  0  0  0  0  0  0  0  0
    0.6577   -0.7449    0.0000 C   0  0  0  0  0  0  0  0  0  0  0  0
   -0.7108   -0.1306    0.0000 O   0  0  0  0  0  0  0  0  0  0  0  0
   -0.8630    1.3616    0.0000 C   0  0  0  0  0  0  0  0  0  0  0  0
   -2.2315    1.9759    0.0000 C   0  0  0  0  0  0  0  0  0  0  0  0
   -2.3837    3.4682    0.0000 C   0  0  0  0  0  0  0  0  0  0  0  0
   -1.1675    4.3461    0.0000 C   0  0  0  0  0  0  0  0  0  0  0  0
    0.2010    3.7318    0.0000 C   0  0  0  0  0  0  0  0  0  0  0  0
    0.3532    2.2396    0.0000 C   0  0  0  0  0  0  0  0  0  0  0  0
    1.8296    1.9747    0.0000 C   0  0  0  0  0  0  0  0  0  0  0  0
   -3.4477    1.0979    0.0000 C   0  0  0  0  0  0  0  0  0  0  0  0
   -3.8929    0.1640    0.0000 C   0  0  0  0  0  0  0  0  0  0  0  0
   -5.3592    0.4803    0.0000 O   0  0  0  0  0  0  0  0  0  0  0  0
   -5.8183    1.9083    0.0000 C   0  0  0  0  0  0  0  0  0  0  0  0
  1  2  1  0
  1  6  1  0
  2  3  1  0
  3  4  1  0
  4  5  1  0
  4 33  1  0
  5  6  1  0
  6  7  1  0
  7  8  2  0
  7  9  1  0
  9 10  1  0
  9 23  2  0
 10 11  2  0
 10 15  1  0
 11 12  1  0
 12 13  2  0
 13 14  1  0
 14 15  2  0
 15 16  1  0
 16 17  1  0
 16 23  1  0
 17 18  1  0
 17 22  1  0
 18 19  1  0
 19 20  1  0
 20 21  1  0
 21 22  1  0
 23 24  1  0
 24 25  1  0
 25 26  2  0
 25 30  1  0
 26 27  1  0
 26 32  1  0
 27 28  2  0
 28 29  1  0
 29 30  2  0
 30 31  1  0
 33 34  1  0
 34 35  1  0
M  END
>  <EXTREG>  (106) 
b2a4f

>  <ID>  (106) 
b2a4f

>  <RENIN_IC50>  (106) 
0.6940

>  <ORIGIN>  (106) 
BMCL2011A

>  <RENIN_PIC50>  (106) 
6.1586

>  <TRAIN>  (106) 
train

>  <TRAIN_CLASS>  (106) 
0

$$$$
b1i4b
     RDKit          2D

 31 35  0  0  0  0  0  0  0  0999 V2000
    4.9857   -1.4331    0.0000 C   0  0  0  0  0  0  0  0  0  0  0  0
    5.2206   -2.9146    0.0000 C   0  0  0  0  0  0  0  0  0  0  0  0
    4.0549   -3.8587    0.0000 N   0  0  0  0  0  0  0  0  0  0  0  0
    2.6545   -3.3213    0.0000 C   0  0  0  0  0  0  0  0  0  0  0  0
    2.4197   -1.8398    0.0000 C   0  0  0  0  0  0  0  0  0  0  0  0
    3.5853   -0.8957    0.0000 N   0  0  0  0  0  0  0  0  0  0  0  0
    3.3504    0.5858    0.0000 C   0  0  0  0  0  0  0  0  0  0  0  0
    4.5160    1.5299    0.0000 O   0  0  0  0  0  0  0  0  0  0  0  0
    1.9500    1.1232    0.0000 C   0  0  0  0  0  0  0  0  0  0  0  0
    1.5616    2.5720    0.0000 C   0  0  0  0  0  0  0  0  0  0  0  0
    2.3784    3.8301    0.0000 C   0  0  0  0  0  0  0  0  0  0  0  0
    1.6972    5.1666    0.0000 C   0  0  0  0  0  0  0  0  0  0  0  0
    0.1993    5.2449    0.0000 C   0  0  0  0  0  0  0  0  0  0  0  0
   -0.6175    3.9868    0.0000 C   0  0  0  0  0  0  0  0  0  0  0  0
    0.0636    2.6503    0.0000 C   0  0  0  0  0  0  0  0  0  0  0  0
   -0.4737    1.2499    0.0000 N   0  0  0  0  0  0  0  0  0  0  0  0
   -1.9226    0.8615    0.0000 C   0  0  0  0  0  0  0  0  0  0  0  0
   -2.3106   -0.5874    0.0000 C   0  0  0  0  0  0  0  0  0  0  0  0
   -3.7595   -0.9759    0.0000 C   0  0  0  0  0  0  0  0  0  0  0  0
   -4.8203    0.0847    0.0000 C   0  0  0  0  0  0  0  0  0  0  0  0
   -4.4322    1.5336    0.0000 C   0  0  0  0  0  0  0  0  0  0  0  0
   -2.9834    1.9220    0.0000 C   0  0  0  0  0  0  0  0  0  0  0  0
   -6.2691   -0.3037    0.0000 F   0  0  0  0  0  0  0  0  0  0  0  0
    0.6921    0.3061    0.0000 C   0  0  0  0  0  0  0  0  0  0  0  0
    0.6138   -1.1919    0.0000 O   0  0  0  0  0  0  0  0  0  0  0  0
   -0.7226   -1.8730    0.0000 C   0  0  0  0  0  0  0  0  0  0  0  0
   -0.8010   -3.3710    0.0000 C   0  0  0  0  0  0  0  0  0  0  0  0
   -2.1374   -4.0521    0.0000 C   0  0  0  0  0  0  0  0  0  0  0  0
   -3.3955   -3.2353    0.0000 C   0  0  0  0  0  0  0  0  0  0  0  0
   -3.3172   -1.7374    0.0000 C   0  0  0  0  0  0  0  0  0  0  0  0
   -1.9807   -1.0562    0.0000 C   0  0  0  0  0  0  0  0  0  0  0  0
  1  2  1  0
  1  6  1  0
  2  3  1  0
  3  4  1  0
  4  5  1  0
  5  6  1  0
  6  7  1  0
  7  8  2  0
  7  9  1  0
  9 10  1  0
  9 24  2  0
 10 11  2  0
 10 15  1  0
 11 12  1  0
 12 13  2  0
 13 14  1  0
 14 15  2  0
 15 16  1  0
 16 17  1  0
 16 24  1  0
 17 18  2  0
 17 22  1  0
 18 19  1  0
 19 20  2  0
 20 21  1  0
 20 23  1  0
 21 22  2  0
 24 25  1  0
 25 26  1  0
 26 27  2  0
 26 31  1  0
 27 28  1  0
 28 29  2  0
 29 30  1  0
 30 31  2  0
M  END
>  <EXTREG>  (107) 
b1i4b

>  <ID>  (107) 
b1i4b

>  <RENIN_IC50>  (107) 
0.7070

>  <ORIGIN>  (107) 
BMCL2010

>  <RENIN_PIC50>  (107) 
6.1506

>  <TRAIN>  (107) 
test

>  <TRAIN_CLASS>  (107) 
1

$$$$
b1i4g
     RDKit          2D

 32 36  0  0  0  0  0  0  0  0999 V2000
    3.4020   -3.6323    0.0000 C   0  0  0  0  0  0  0  0  0  0  0  0
    2.7765   -4.9957    0.0000 C   0  0  0  0  0  0  0  0  0  0  0  0
    1.2830   -5.1356    0.0000 N   0  0  0  0  0  0  0  0  0  0  0  0
    0.4151   -3.9122    0.0000 C   0  0  0  0  0  0  0  0  0  0  0  0
    1.0406   -2.5489    0.0000 C   0  0  0  0  0  0  0  0  0  0  0  0
    2.5341   -2.4089    0.0000 N   0  0  0  0  0  0  0  0  0  0  0  0
    3.1596   -1.0456    0.0000 C   0  0  0  0  0  0  0  0  0  0  0  0
    4.6531   -0.9056    0.0000 O   0  0  0  0  0  0  0  0  0  0  0  0
    2.2917    0.1778    0.0000 C   0  0  0  0  0  0  0  0  0  0  0  0
    2.7713    1.5991    0.0000 C   0  0  0  0  0  0  0  0  0  0  0  0
    4.1484    2.1937    0.0000 C   0  0  0  0  0  0  0  0  0  0  0  0
    4.3220    3.6836    0.0000 C   0  0  0  0  0  0  0  0  0  0  0  0
    3.1185    4.5789    0.0000 C   0  0  0  0  0  0  0  0  0  0  0  0
    1.7414    3.9843    0.0000 C   0  0  0  0  0  0  0  0  0  0  0  0
    1.5678    2.4944    0.0000 C   0  0  0  0  0  0  0  0  0  0  0  0
    0.3444    1.6265    0.0000 N   0  0  0  0  0  0  0  0  0  0  0  0
   -1.0769    2.1061    0.0000 C   0  0  0  0  0  0  0  0  0  0  0  0
   -2.2029    1.1150    0.0000 C   0  0  0  0  0  0  0  0  0  0  0  0
   -3.6241    1.5946    0.0000 C   0  0  0  0  0  0  0  0  0  0  0  0
   -3.9194    3.0653    0.0000 O   0  0  0  0  0  0  0  0  0  0  0  0
   -2.7934    4.0563    0.0000 C   0  0  0  0  0  0  0  0  0  0  0  0
   -1.3722    3.5767    0.0000 C   0  0  0  0  0  0  0  0  0  0  0  0
    0.7918    0.1947    0.0000 C   0  0  0  0  0  0  0  0  0  0  0  0
   -0.1036   -1.0088    0.0000 C   0  0  0  0  0  0  0  0  0  0  0  0
   -1.5935   -0.8351    0.0000 C   0  0  0  0  0  0  0  0  0  0  0  0
   -2.4888   -2.0386    0.0000 C   0  0  0  0  0  0  0  0  0  0  0  0
   -3.9787   -1.8650    0.0000 C   0  0  0  0  0  0  0  0  0  0  0  0
   -4.5733   -0.4879    0.0000 C   0  0  0  0  0  0  0  0  0  0  0  0
   -3.6780    0.7156    0.0000 C   0  0  0  0  0  0  0  0  0  0  0  0
   -2.1881    0.5420    0.0000 C   0  0  0  0  0  0  0  0  0  0  0  0
   -4.8740   -3.0685    0.0000 F   0  0  0  0  0  0  0  0  0  0  0  0
   -1.8942   -3.4157    0.0000 C   0  0  0  0  0  0  0  0  0  0  0  0
  1  2  1  0
  1  6  1  0
  2  3  1  0
  3  4  1  0
  4  5  1  0
  5  6  1  0
  6  7  1  0
  7  8  2  0
  7  9  1  0
  9 10  1  0
  9 23  2  0
 10 11  2  0
 10 15  1  0
 11 12  1  0
 12 13  2  0
 13 14  1  0
 14 15  2  0
 15 16  1  0
 16 17  1  0
 16 23  1  0
 17 18  1  0
 17 22  1  0
 18 19  1  0
 19 20  1  0
 20 21  1  0
 21 22  1  0
 23 24  1  0
 24 25  1  0
 25 26  2  0
 25 30  1  0
 26 27  1  0
 26 32  1  0
 27 28  2  0
 27 31  1  0
 28 29  1  0
 29 30  2  0
M  END
>  <EXTREG>  (108) 
b1i4g

>  <ID>  (108) 
b1i4g

>  <RENIN_IC50>  (108) 
0.7520

>  <ORIGIN>  (108) 
BMCL2010

>  <RENIN_PIC50>  (108) 
6.1238

>  <TRAIN>  (108) 
train

>  <TRAIN_CLASS>  (108) 
0

$$$$
b2a6e
     RDKit          2D

 30 34  0  0  0  0  0  0  0  0999 V2000
    4.8318   -1.2466    0.0000 C   0  0  0  0  0  0  0  0  0  0  0  0
    5.1270   -2.7172    0.0000 C   0  0  0  0  0  0  0  0  0  0  0  0
    4.0010   -3.7083    0.0000 N   0  0  0  0  0  0  0  0  0  0  0  0
    2.5798   -3.2286    0.0000 C   0  0  0  0  0  0  0  0  0  0  0  0
    2.2845   -1.7580    0.0000 C   0  0  0  0  0  0  0  0  0  0  0  0
    3.4105   -0.7669    0.0000 N   0  0  0  0  0  0  0  0  0  0  0  0
    3.1153    0.7037    0.0000 C   0  0  0  0  0  0  0  0  0  0  0  0
    4.2413    1.6947    0.0000 O   0  0  0  0  0  0  0  0  0  0  0  0
    1.6940    1.1834    0.0000 C   0  0  0  0  0  0  0  0  0  0  0  0
    1.2467    2.6151    0.0000 C   0  0  0  0  0  0  0  0  0  0  0  0
    2.0113    3.9056    0.0000 C   0  0  0  0  0  0  0  0  0  0  0  0
    1.2761    5.2130    0.0000 C   0  0  0  0  0  0  0  0  0  0  0  0
   -0.2238    5.2300    0.0000 N   0  0  0  0  0  0  0  0  0  0  0  0
   -0.9885    3.9395    0.0000 C   0  0  0  0  0  0  0  0  0  0  0  0
   -0.2532    2.6321    0.0000 C   0  0  0  0  0  0  0  0  0  0  0  0
   -0.7329    1.2108    0.0000 N   0  0  0  0  0  0  0  0  0  0  0  0
   -2.1646    0.7634    0.0000 C   0  0  0  0  0  0  0  0  0  0  0  0
   -2.4930   -0.7002    0.0000 C   0  0  0  0  0  0  0  0  0  0  0  0
   -3.9248   -1.1475    0.0000 C   0  0  0  0  0  0  0  0  0  0  0  0
   -5.0281   -0.1313    0.0000 C   0  0  0  0  0  0  0  0  0  0  0  0
   -4.6996    1.3323    0.0000 C   0  0  0  0  0  0  0  0  0  0  0  0
   -3.2679    1.7797    0.0000 C   0  0  0  0  0  0  0  0  0  0  0  0
    0.4706    0.3155    0.0000 C   0  0  0  0  0  0  0  0  0  0  0  0
    0.4537   -1.1844    0.0000 C   0  0  0  0  0  0  0  0  0  0  0  0
   -0.8538   -1.9197    0.0000 C   0  0  0  0  0  0  0  0  0  0  0  0
   -0.8708   -3.4196    0.0000 C   0  0  0  0  0  0  0  0  0  0  0  0
   -2.1782   -4.1549    0.0000 C   0  0  0  0  0  0  0  0  0  0  0  0
   -3.4687   -3.3902    0.0000 C   0  0  0  0  0  0  0  0  0  0  0  0
   -3.4517   -1.8903    0.0000 C   0  0  0  0  0  0  0  0  0  0  0  0
   -2.1443   -1.1551    0.0000 C   0  0  0  0  0  0  0  0  0  0  0  0
  1  2  1  0
  1  6  1  0
  2  3  1  0
  3  4  1  0
  4  5  1  0
  5  6  1  0
  6  7  1  0
  7  8  2  0
  7  9  1  0
  9 10  1  0
  9 23  2  0
 10 11  2  0
 10 15  1  0
 11 12  1  0
 12 13  2  0
 13 14  1  0
 14 15  2  0
 15 16  1  0
 16 17  1  0
 16 23  1  0
 17 18  2  0
 17 22  1  0
 18 19  1  0
 19 20  2  0
 20 21  1  0
 21 22  2  0
 23 24  1  0
 24 25  1  0
 25 26  2  0
 25 30  1  0
 26 27  1  0
 27 28  2  0
 28 29  1  0
 29 30  2  0
M  END
>  <EXTREG>  (109) 
b2a6e

>  <ID>  (109) 
b2a6e

>  <RENIN_IC50>  (109) 
0.7610

>  <ORIGIN>  (109) 
BMCL2011A

>  <RENIN_PIC50>  (109) 
6.1186

>  <TRAIN>  (109) 
train

>  <TRAIN_CLASS>  (109) 
0

$$$$
b1i4d
     RDKit          2D

 36 40  0  0  0  0  0  0  0  0999 V2000
   -6.5635    0.0279    0.0000 C   0  0  0  0  0  0  0  0  0  0  0  0
   -7.2229    1.3752    0.0000 C   0  0  0  0  0  0  0  0  0  0  0  0
   -6.3858    2.6199    0.0000 N   0  0  0  0  0  0  0  0  0  0  0  0
   -4.8893    2.5173    0.0000 C   0  0  0  0  0  0  0  0  0  0  0  0
   -4.2299    1.1700    0.0000 C   0  0  0  0  0  0  0  0  0  0  0  0
   -5.0670   -0.0747    0.0000 N   0  0  0  0  0  0  0  0  0  0  0  0
   -4.4076   -1.4220    0.0000 C   0  0  0  0  0  0  0  0  0  0  0  0
   -5.2446   -2.6667    0.0000 O   0  0  0  0  0  0  0  0  0  0  0  0
   -2.9111   -1.5245    0.0000 C   0  0  0  0  0  0  0  0  0  0  0  0
   -2.1144   -2.7955    0.0000 C   0  0  0  0  0  0  0  0  0  0  0  0
   -2.5259   -4.2380    0.0000 C   0  0  0  0  0  0  0  0  0  0  0  0
   -1.4824   -5.3155    0.0000 C   0  0  0  0  0  0  0  0  0  0  0  0
   -0.0275   -4.9506    0.0000 C   0  0  0  0  0  0  0  0  0  0  0  0
    0.3840   -3.5082    0.0000 C   0  0  0  0  0  0  0  0  0  0  0  0
   -0.6595   -2.4306    0.0000 C   0  0  0  0  0  0  0  0  0  0  0  0
   -0.5569   -0.9341    0.0000 N   0  0  0  0  0  0  0  0  0  0  0  0
    0.7140   -0.1375    0.0000 C   0  0  0  0  0  0  0  0  0  0  0  0
    0.6596    1.3615    0.0000 C   0  0  0  0  0  0  0  0  0  0  0  0
    1.9306    2.1582    0.0000 C   0  0  0  0  0  0  0  0  0  0  0  0
    3.2560    1.4558    0.0000 C   0  0  0  0  0  0  0  0  0  0  0  0
    3.3104   -0.0432    0.0000 C   0  0  0  0  0  0  0  0  0  0  0  0
    2.0394   -0.8399    0.0000 C   0  0  0  0  0  0  0  0  0  0  0  0
    4.6358   -0.7456    0.0000 O   0  0  0  0  0  0  0  0  0  0  0  0
    5.9068    0.0510    0.0000 C   0  0  0  0  0  0  0  0  0  0  0  0
    7.2322   -0.6513    0.0000 C   0  0  0  0  0  0  0  0  0  0  0  0
    8.5031    0.1453    0.0000 C   0  0  0  0  0  0  0  0  0  0  0  0
    9.8285   -0.5571    0.0000 O   0  0  0  0  0  0  0  0  0  0  0  0
   11.0995    0.2396    0.0000 C   0  0  0  0  0  0  0  0  0  0  0  0
   -1.9485   -0.3741    0.0000 C   0  0  0  0  0  0  0  0  0  0  0  0
   -2.3134    1.0808    0.0000 O   0  0  0  0  0  0  0  0  0  0  0  0
   -1.2358    2.1243    0.0000 C   0  0  0  0  0  0  0  0  0  0  0  0
   -1.6007    3.5792    0.0000 C   0  0  0  0  0  0  0  0  0  0  0  0
   -0.5231    4.6227    0.0000 C   0  0  0  0  0  0  0  0  0  0  0  0
    0.9193    4.2112    0.0000 C   0  0  0  0  0  0  0  0  0  0  0  0
    1.2842    2.7563    0.0000 C   0  0  0  0  0  0  0  0  0  0  0  0
    0.2066    1.7128    0.0000 C   0  0  0  0  0  0  0  0  0  0  0  0
  1  2  1  0
  1  6  1  0
  2  3  1  0
  3  4  1  0
  4  5  1  0
  5  6  1  0
  6  7  1  0
  7  8  2  0
  7  9  1  0
  9 10  1  0
  9 29  2  0
 10 11  2  0
 10 15  1  0
 11 12  1  0
 12 13  2  0
 13 14  1  0
 14 15  2  0
 15 16  1  0
 16 17  1  0
 16 29  1  0
 17 18  2  0
 17 22  1  0
 18 19  1  0
 19 20  2  0
 20 21  1  0
 21 22  2  0
 21 23  1  0
 23 24  1  0
 24 25  1  0
 25 26  1  0
 26 27  1  0
 27 28  1  0
 29 30  1  0
 30 31  1  0
 31 32  2  0
 31 36  1  0
 32 33  1  0
 33 34  2  0
 34 35  1  0
 35 36  2  0
M  END
>  <EXTREG>  (110) 
b1i4d

>  <ID>  (110) 
b1i4d

>  <RENIN_IC50>  (110) 
0.7630

>  <ORIGIN>  (110) 
BMCL2010

>  <RENIN_PIC50>  (110) 
6.1175

>  <TRAIN>  (110) 
train

>  <TRAIN_CLASS>  (110) 
0

$$$$
b1i2g
     RDKit          2D

 31 35  0  0  0  0  0  0  0  0999 V2000
    4.0534   -2.9560    0.0000 C   0  0  0  0  0  0  0  0  0  0  0  0
    3.7286   -4.4204    0.0000 C   0  0  0  0  0  0  0  0  0  0  0  0
    2.2980   -4.8714    0.0000 N   0  0  0  0  0  0  0  0  0  0  0  0
    1.1922   -3.8580    0.0000 C   0  0  0  0  0  0  0  0  0  0  0  0
    1.5169   -2.3935    0.0000 C   0  0  0  0  0  0  0  0  0  0  0  0
    2.9475   -1.9426    0.0000 N   0  0  0  0  0  0  0  0  0  0  0  0
    3.2723   -0.4781    0.0000 C   0  0  0  0  0  0  0  0  0  0  0  0
    4.7029   -0.0272    0.0000 O   0  0  0  0  0  0  0  0  0  0  0  0
    2.1664    0.5353    0.0000 C   0  0  0  0  0  0  0  0  0  0  0  0
    2.3363    2.0257    0.0000 C   0  0  0  0  0  0  0  0  0  0  0  0
    3.5576    2.8966    0.0000 C   0  0  0  0  0  0  0  0  0  0  0  0
    3.4139    4.3897    0.0000 C   0  0  0  0  0  0  0  0  0  0  0  0
    2.0490    5.0119    0.0000 C   0  0  0  0  0  0  0  0  0  0  0  0
    0.8278    4.1409    0.0000 C   0  0  0  0  0  0  0  0  0  0  0  0
    0.9714    2.6478    0.0000 C   0  0  0  0  0  0  0  0  0  0  0  0
   -0.0420    1.5419    0.0000 N   0  0  0  0  0  0  0  0  0  0  0  0
   -1.5324    1.7118    0.0000 C   0  0  0  0  0  0  0  0  0  0  0  0
   -2.4247    0.5061    0.0000 C   0  0  0  0  0  0  0  0  0  0  0  0
   -3.9150    0.6760    0.0000 C   0  0  0  0  0  0  0  0  0  0  0  0
   -4.5131    2.0517    0.0000 C   0  0  0  0  0  0  0  0  0  0  0  0
   -3.6207    3.2574    0.0000 C   0  0  0  0  0  0  0  0  0  0  0  0
   -2.1304    3.0875    0.0000 C   0  0  0  0  0  0  0  0  0  0  0  0
    0.6965    0.2364    0.0000 C   0  0  0  0  0  0  0  0  0  0  0  0
    0.0744   -1.1285    0.0000 O   0  0  0  0  0  0  0  0  0  0  0  0
   -1.4187   -1.2722    0.0000 C   0  0  0  0  0  0  0  0  0  0  0  0
   -2.0408   -2.6371    0.0000 C   0  0  0  0  0  0  0  0  0  0  0  0
   -3.5339   -2.7808    0.0000 C   0  0  0  0  0  0  0  0  0  0  0  0
   -4.4049   -1.5595    0.0000 C   0  0  0  0  0  0  0  0  0  0  0  0
   -3.7828   -0.1946    0.0000 C   0  0  0  0  0  0  0  0  0  0  0  0
   -2.2897   -0.0510    0.0000 C   0  0  0  0  0  0  0  0  0  0  0  0
   -4.1561   -4.1457    0.0000 C   0  0  0  0  0  0  0  0  0  0  0  0
  1  2  1  0
  1  6  1  0
  2  3  1  0
  3  4  1  0
  4  5  1  0
  5  6  1  0
  6  7  1  0
  7  8  2  0
  7  9  1  0
  9 10  1  0
  9 23  2  0
 10 11  2  0
 10 15  1  0
 11 12  1  0
 12 13  2  0
 13 14  1  0
 14 15  2  0
 15 16  1  0
 16 17  1  0
 16 23  1  0
 17 18  2  0
 17 22  1  0
 18 19  1  0
 19 20  2  0
 20 21  1  0
 21 22  2  0
 23 24  1  0
 24 25  1  0
 25 26  2  0
 25 30  1  0
 26 27  1  0
 27 28  2  0
 27 31  1  0
 28 29  1  0
 29 30  2  0
M  END
>  <EXTREG>  (111) 
b1i2g

>  <ID>  (111) 
b1i2g

>  <RENIN_IC50>  (111) 
0.7730

>  <ORIGIN>  (111) 
BMCL2010

>  <RENIN_PIC50>  (111) 
6.1118

>  <TRAIN>  (111) 
train

>  <TRAIN_CLASS>  (111) 
0

$$$$
b3a5a
     RDKit          2D

 31 35  0  0  0  0  0  0  0  0999 V2000
   -4.8712    0.8500    0.0000 C   0  0  0  0  0  0  0  0  0  0  0  0
   -5.2454    2.3026    0.0000 C   0  0  0  0  0  0  0  0  0  0  0  0
   -4.1745    3.3529    0.0000 N   0  0  0  0  0  0  0  0  0  0  0  0
   -2.7294    2.9507    0.0000 C   0  0  0  0  0  0  0  0  0  0  0  0
   -2.3553    1.4981    0.0000 C   0  0  0  0  0  0  0  0  0  0  0  0
   -3.4262    0.4478    0.0000 N   0  0  0  0  0  0  0  0  0  0  0  0
   -3.0520   -1.0048    0.0000 C   0  0  0  0  0  0  0  0  0  0  0  0
   -4.1229   -2.0552    0.0000 O   0  0  0  0  0  0  0  0  0  0  0  0
   -1.6069   -1.4071    0.0000 C   0  0  0  0  0  0  0  0  0  0  0  0
   -1.0830   -2.8126    0.0000 C   0  0  0  0  0  0  0  0  0  0  0  0
   -1.7769   -4.1424    0.0000 C   0  0  0  0  0  0  0  0  0  0  0  0
   -0.9722   -5.4083    0.0000 N   0  0  0  0  0  0  0  0  0  0  0  0
    0.5265   -5.3443    0.0000 C   0  0  0  0  0  0  0  0  0  0  0  0
    1.2204   -4.0145    0.0000 C   0  0  0  0  0  0  0  0  0  0  0  0
    0.4157   -2.7486    0.0000 C   0  0  0  0  0  0  0  0  0  0  0  0
    0.8179   -1.3036    0.0000 N   0  0  0  0  0  0  0  0  0  0  0  0
    2.2234   -0.7796    0.0000 C   0  0  0  0  0  0  0  0  0  0  0  0
    2.4724    0.6996    0.0000 C   0  0  0  0  0  0  0  0  0  0  0  0
    3.8779    1.2235    0.0000 C   0  0  0  0  0  0  0  0  0  0  0  0
    5.0345    0.2683    0.0000 C   0  0  0  0  0  0  0  0  0  0  0  0
    4.7855   -1.2109    0.0000 C   0  0  0  0  0  0  0  0  0  0  0  0
    3.3799   -1.7348    0.0000 C   0  0  0  0  0  0  0  0  0  0  0  0
   -0.4321   -0.4744    0.0000 C   0  0  0  0  0  0  0  0  0  0  0  0
   -0.4961    1.0242    0.0000 O   0  0  0  0  0  0  0  0  0  0  0  0
    0.7698    1.8289    0.0000 C   0  0  0  0  0  0  0  0  0  0  0  0
    0.7058    3.3276    0.0000 C   0  0  0  0  0  0  0  0  0  0  0  0
    1.9717    4.1323    0.0000 C   0  0  0  0  0  0  0  0  0  0  0  0
    3.3015    3.4384    0.0000 C   0  0  0  0  0  0  0  0  0  0  0  0
    3.3655    1.9397    0.0000 C   0  0  0  0  0  0  0  0  0  0  0  0
    2.0996    1.1350    0.0000 C   0  0  0  0  0  0  0  0  0  0  0  0
   -0.6241    4.0215    0.0000 C   0  0  0  0  0  0  0  0  0  0  0  0
  1  2  1  0
  1  6  1  0
  2  3  1  0
  3  4  1  0
  4  5  1  0
  5  6  1  0
  6  7  1  0
  7  8  2  0
  7  9  1  0
  9 10  1  0
  9 23  2  0
 10 11  2  0
 10 15  1  0
 11 12  1  0
 12 13  2  0
 13 14  1  0
 14 15  2  0
 15 16  1  0
 16 17  1  0
 16 23  1  0
 17 18  2  0
 17 22  1  0
 18 19  1  0
 19 20  2  0
 20 21  1  0
 21 22  2  0
 23 24  1  0
 24 25  1  0
 25 26  2  0
 25 30  1  0
 26 27  1  0
 26 31  1  0
 27 28  2  0
 28 29  1  0
 29 30  2  0
M  END
>  <EXTREG>  (112) 
b3a5a

>  <ID>  (112) 
b3a5a

>  <RENIN_IC50>  (112) 
0.8470

>  <ORIGIN>  (112) 
BMCL2011B

>  <RENIN_PIC50>  (112) 
6.0721

>  <TRAIN>  (112) 
train

>  <TRAIN_CLASS>  (112) 
0

$$$$
b2a7a
     RDKit          2D

 34 38  0  0  0  0  0  0  0  0999 V2000
    1.0092   -4.8013    0.0000 C   0  0  0  0  0  0  0  0  0  0  0  0
   -0.1555   -5.7465    0.0000 C   0  0  0  0  0  0  0  0  0  0  0  0
   -1.5564   -5.2105    0.0000 N   0  0  0  0  0  0  0  0  0  0  0  0
   -1.7927   -3.7293    0.0000 C   0  0  0  0  0  0  0  0  0  0  0  0
   -0.6281   -2.7840    0.0000 C   0  0  0  0  0  0  0  0  0  0  0  0
    0.7729   -3.3200    0.0000 N   0  0  0  0  0  0  0  0  0  0  0  0
    1.9376   -2.3747    0.0000 C   0  0  0  0  0  0  0  0  0  0  0  0
    3.3386   -2.9107    0.0000 O   0  0  0  0  0  0  0  0  0  0  0  0
    1.7013   -0.8934    0.0000 C   0  0  0  0  0  0  0  0  0  0  0  0
    2.7608    0.1684    0.0000 C   0  0  0  0  0  0  0  0  0  0  0  0
    4.2588    0.0916    0.0000 C   0  0  0  0  0  0  0  0  0  0  0  0
    5.0744    1.3505    0.0000 C   0  0  0  0  0  0  0  0  0  0  0  0
    4.3919    2.6862    0.0000 N   0  0  0  0  0  0  0  0  0  0  0  0
    2.8939    2.7631    0.0000 C   0  0  0  0  0  0  0  0  0  0  0  0
    2.0783    1.5041    0.0000 C   0  0  0  0  0  0  0  0  0  0  0  0
    0.5970    1.2679    0.0000 N   0  0  0  0  0  0  0  0  0  0  0  0
   -0.4648    2.3273    0.0000 C   0  0  0  0  0  0  0  0  0  0  0  0
   -0.0782    3.7767    0.0000 C   0  0  0  0  0  0  0  0  0  0  0  0
   -1.1400    4.8361    0.0000 C   0  0  0  0  0  0  0  0  0  0  0  0
   -2.5885    4.4463    0.0000 C   0  0  0  0  0  0  0  0  0  0  0  0
   -2.9751    2.9970    0.0000 C   0  0  0  0  0  0  0  0  0  0  0  0
   -1.9133    1.9375    0.0000 C   0  0  0  0  0  0  0  0  0  0  0  0
    0.3640   -0.2139    0.0000 C   0  0  0  0  0  0  0  0  0  0  0  0
   -0.9717   -0.8964    0.0000 C   0  0  0  0  0  0  0  0  0  0  0  0
   -2.2306   -0.0808    0.0000 C   0  0  0  0  0  0  0  0  0  0  0  0
   -2.1538    1.4172    0.0000 C   0  0  0  0  0  0  0  0  0  0  0  0
   -3.4127    2.2327    0.0000 C   0  0  0  0  0  0  0  0  0  0  0  0
   -4.7485    1.5503    0.0000 C   0  0  0  0  0  0  0  0  0  0  0  0
   -4.8253    0.0522    0.0000 C   0  0  0  0  0  0  0  0  0  0  0  0
   -3.5664   -0.7633    0.0000 C   0  0  0  0  0  0  0  0  0  0  0  0
   -3.6432   -2.2613    0.0000 C   0  0  0  0  0  0  0  0  0  0  0  0
   -6.1611   -0.6302    0.0000 F   0  0  0  0  0  0  0  0  0  0  0  0
    6.5724    1.2736    0.0000 O   0  0  0  0  0  0  0  0  0  0  0  0
    7.2549   -0.0621    0.0000 C   0  0  0  0  0  0  0  0  0  0  0  0
  1  2  1  0
  1  6  1  0
  2  3  1  0
  3  4  1  0
  4  5  1  0
  5  6  1  0
  6  7  1  0
  7  8  2  0
  7  9  1  0
  9 10  1  0
  9 23  2  0
 10 11  2  0
 10 15  1  0
 11 12  1  0
 12 13  2  0
 12 33  1  0
 13 14  1  0
 14 15  2  0
 15 16  1  0
 16 17  1  0
 16 23  1  0
 17 18  2  0
 17 22  1  0
 18 19  1  0
 19 20  2  0
 20 21  1  0
 21 22  2  0
 23 24  1  0
 24 25  1  0
 25 26  2  0
 25 30  1  0
 26 27  1  0
 27 28  2  0
 28 29  1  0
 29 30  2  0
 29 32  1  0
 30 31  1  0
 33 34  1  0
M  END
>  <EXTREG>  (113) 
b2a7a

>  <ID>  (113) 
b2a7a

>  <RENIN_IC50>  (113) 
0.8500

>  <ORIGIN>  (113) 
BMCL2011A

>  <RENIN_PIC50>  (113) 
6.0706

>  <TRAIN>  (113) 
train

>  <TRAIN_CLASS>  (113) 
0

$$$$
b2a3o
     RDKit          2D

 30 34  0  0  0  0  0  0  0  0999 V2000
    4.8318   -1.2466    0.0000 C   0  0  0  0  0  0  0  0  0  0  0  0
    5.1270   -2.7172    0.0000 C   0  0  0  0  0  0  0  0  0  0  0  0
    4.0010   -3.7083    0.0000 N   0  0  0  0  0  0  0  0  0  0  0  0
    2.5798   -3.2286    0.0000 C   0  0  0  0  0  0  0  0  0  0  0  0
    2.2845   -1.7580    0.0000 C   0  0  0  0  0  0  0  0  0  0  0  0
    3.4105   -0.7669    0.0000 N   0  0  0  0  0  0  0  0  0  0  0  0
    3.1153    0.7037    0.0000 C   0  0  0  0  0  0  0  0  0  0  0  0
    4.2413    1.6947    0.0000 O   0  0  0  0  0  0  0  0  0  0  0  0
    1.6940    1.1834    0.0000 C   0  0  0  0  0  0  0  0  0  0  0  0
    1.2467    2.6151    0.0000 C   0  0  0  0  0  0  0  0  0  0  0  0
    2.0113    3.9056    0.0000 N   0  0  0  0  0  0  0  0  0  0  0  0
    1.2761    5.2130    0.0000 C   0  0  0  0  0  0  0  0  0  0  0  0
   -0.2238    5.2300    0.0000 C   0  0  0  0  0  0  0  0  0  0  0  0
   -0.9885    3.9395    0.0000 C   0  0  0  0  0  0  0  0  0  0  0  0
   -0.2532    2.6321    0.0000 C   0  0  0  0  0  0  0  0  0  0  0  0
   -0.7329    1.2108    0.0000 N   0  0  0  0  0  0  0  0  0  0  0  0
   -2.1646    0.7634    0.0000 C   0  0  0  0  0  0  0  0  0  0  0  0
   -2.4930   -0.7002    0.0000 C   0  0  0  0  0  0  0  0  0  0  0  0
   -3.9248   -1.1475    0.0000 C   0  0  0  0  0  0  0  0  0  0  0  0
   -5.0281   -0.1313    0.0000 C   0  0  0  0  0  0  0  0  0  0  0  0
   -4.6996    1.3323    0.0000 C   0  0  0  0  0  0  0  0  0  0  0  0
   -3.2679    1.7797    0.0000 C   0  0  0  0  0  0  0  0  0  0  0  0
    0.4706    0.3155    0.0000 C   0  0  0  0  0  0  0  0  0  0  0  0
    0.4537   -1.1844    0.0000 C   0  0  0  0  0  0  0  0  0  0  0  0
   -0.8538   -1.9197    0.0000 C   0  0  0  0  0  0  0  0  0  0  0  0
   -0.8708   -3.4196    0.0000 C   0  0  0  0  0  0  0  0  0  0  0  0
   -2.1782   -4.1549    0.0000 C   0  0  0  0  0  0  0  0  0  0  0  0
   -3.4687   -3.3902    0.0000 C   0  0  0  0  0  0  0  0  0  0  0  0
   -3.4517   -1.8903    0.0000 C   0  0  0  0  0  0  0  0  0  0  0  0
   -2.1443   -1.1551    0.0000 C   0  0  0  0  0  0  0  0  0  0  0  0
  1  2  1  0
  1  6  1  0
  2  3  1  0
  3  4  1  0
  4  5  1  0
  5  6  1  0
  6  7  1  0
  7  8  2  0
  7  9  1  0
  9 10  1  0
  9 23  2  0
 10 11  2  0
 10 15  1  0
 11 12  1  0
 12 13  2  0
 13 14  1  0
 14 15  2  0
 15 16  1  0
 16 17  1  0
 16 23  1  0
 17 18  2  0
 17 22  1  0
 18 19  1  0
 19 20  2  0
 20 21  1  0
 21 22  2  0
 23 24  1  0
 24 25  1  0
 25 26  2  0
 25 30  1  0
 26 27  1  0
 27 28  2  0
 28 29  1  0
 29 30  2  0
M  END
>  <EXTREG>  (114) 
b2a3o

>  <ID>  (114) 
b2a3o

>  <RENIN_IC50>  (114) 
0.9390

>  <ORIGIN>  (114) 
BMCL2011A

>  <RENIN_PIC50>  (114) 
6.0273

>  <TRAIN>  (114) 
train

>  <TRAIN_CLASS>  (114) 
0

$$$$
b2a3p
     RDKit          2D

 31 35  0  0  0  0  0  0  0  0999 V2000
   -4.8547    0.8279    0.0000 C   0  0  0  0  0  0  0  0  0  0  0  0
   -5.2548    2.2735    0.0000 C   0  0  0  0  0  0  0  0  0  0  0  0
   -4.2029    3.3429    0.0000 N   0  0  0  0  0  0  0  0  0  0  0  0
   -2.7509    2.9665    0.0000 C   0  0  0  0  0  0  0  0  0  0  0  0
   -2.3508    1.5209    0.0000 C   0  0  0  0  0  0  0  0  0  0  0  0
   -3.4027    0.4515    0.0000 N   0  0  0  0  0  0  0  0  0  0  0  0
   -3.0026   -0.9941    0.0000 C   0  0  0  0  0  0  0  0  0  0  0  0
   -4.0545   -2.0634    0.0000 O   0  0  0  0  0  0  0  0  0  0  0  0
   -1.5506   -1.3705    0.0000 C   0  0  0  0  0  0  0  0  0  0  0  0
   -1.0016   -2.7664    0.0000 C   0  0  0  0  0  0  0  0  0  0  0  0
   -1.6716   -4.1084    0.0000 N   0  0  0  0  0  0  0  0  0  0  0  0
   -0.8443   -5.3597    0.0000 C   0  0  0  0  0  0  0  0  0  0  0  0
    0.6529   -5.2689    0.0000 C   0  0  0  0  0  0  0  0  0  0  0  0
    1.3229   -3.9268    0.0000 C   0  0  0  0  0  0  0  0  0  0  0  0
    0.4957   -2.6756    0.0000 C   0  0  0  0  0  0  0  0  0  0  0  0
    0.8720   -1.2236    0.0000 N   0  0  0  0  0  0  0  0  0  0  0  0
    2.2679   -0.6745    0.0000 C   0  0  0  0  0  0  0  0  0  0  0  0
    2.4904    0.8089    0.0000 C   0  0  0  0  0  0  0  0  0  0  0  0
    3.8864    1.3579    0.0000 C   0  0  0  0  0  0  0  0  0  0  0  0
    5.0598    0.4235    0.0000 C   0  0  0  0  0  0  0  0  0  0  0  0
    4.8373   -1.0599    0.0000 C   0  0  0  0  0  0  0  0  0  0  0  0
    3.4414   -1.6089    0.0000 C   0  0  0  0  0  0  0  0  0  0  0  0
   -0.3926   -0.4169    0.0000 C   0  0  0  0  0  0  0  0  0  0  0  0
   -0.4834    1.0803    0.0000 C   0  0  0  0  0  0  0  0  0  0  0  0
    0.7678    1.9076    0.0000 C   0  0  0  0  0  0  0  0  0  0  0  0
    2.1099    1.2376    0.0000 C   0  0  0  0  0  0  0  0  0  0  0  0
    3.3612    2.0648    0.0000 C   0  0  0  0  0  0  0  0  0  0  0  0
    3.2704    3.5620    0.0000 C   0  0  0  0  0  0  0  0  0  0  0  0
    1.9283    4.2321    0.0000 C   0  0  0  0  0  0  0  0  0  0  0  0
    0.6771    3.4048    0.0000 C   0  0  0  0  0  0  0  0  0  0  0  0
   -1.6235    2.0551    0.0000 C   0  0  0  0  0  0  0  0  0  0  0  0
  1  2  1  0
  1  6  1  0
  2  3  1  0
  3  4  1  0
  4  5  1  0
  5  6  1  0
  6  7  1  0
  7  8  2  0
  7  9  1  0
  9 10  1  0
  9 23  2  0
 10 11  2  0
 10 15  1  0
 11 12  1  0
 12 13  2  0
 13 14  1  0
 14 15  2  0
 15 16  1  0
 16 17  1  0
 16 23  1  0
 17 18  2  0
 17 22  1  0
 18 19  1  0
 19 20  2  0
 20 21  1  0
 21 22  2  0
 23 24  1  0
 24 25  1  0
 24 31  1  0
 25 26  2  0
 25 30  1  0
 26 27  1  0
 27 28  2  0
 28 29  1  0
 29 30  2  0
M  END
>  <EXTREG>  (115) 
b2a3p

>  <ID>  (115) 
b2a3p

>  <RENIN_IC50>  (115) 
1.0000

>  <ORIGIN>  (115) 
BMCL2011A

>  <RENIN_PIC50>  (115) 
6.0000

>  <TRAIN>  (115) 
train

>  <TRAIN_CLASS>  (115) 
0

$$$$
b3a7g
     RDKit          2D

 35 39  0  0  0  0  0  0  0  0999 V2000
   -1.5483   -4.6449    0.0000 C   0  0  0  0  0  0  0  0  0  0  0  0
   -3.0460   -4.7271    0.0000 C   0  0  0  0  0  0  0  0  0  0  0  0
   -3.8661   -3.4712    0.0000 N   0  0  0  0  0  0  0  0  0  0  0  0
   -3.1884   -2.1330    0.0000 C   0  0  0  0  0  0  0  0  0  0  0  0
   -1.6907   -2.0507    0.0000 C   0  0  0  0  0  0  0  0  0  0  0  0
   -0.8706   -3.3067    0.0000 N   0  0  0  0  0  0  0  0  0  0  0  0
    0.6272   -3.2245    0.0000 C   0  0  0  0  0  0  0  0  0  0  0  0
    1.4472   -4.4805    0.0000 O   0  0  0  0  0  0  0  0  0  0  0  0
    1.3048   -1.8863    0.0000 C   0  0  0  0  0  0  0  0  0  0  0  0
    2.7858   -1.6480    0.0000 C   0  0  0  0  0  0  0  0  0  0  0  0
    3.9538   -2.5891    0.0000 C   0  0  0  0  0  0  0  0  0  0  0  0
    5.3529   -2.0481    0.0000 N   0  0  0  0  0  0  0  0  0  0  0  0
    5.5838   -0.5660    0.0000 C   0  0  0  0  0  0  0  0  0  0  0  0
    4.4158    0.3751    0.0000 C   0  0  0  0  0  0  0  0  0  0  0  0
    3.0168   -0.1659    0.0000 C   0  0  0  0  0  0  0  0  0  0  0  0
    1.6786    0.5118    0.0000 N   0  0  0  0  0  0  0  0  0  0  0  0
    1.4402    1.9927    0.0000 C   0  0  0  0  0  0  0  0  0  0  0  0
    2.6036    2.9396    0.0000 C   0  0  0  0  0  0  0  0  0  0  0  0
    2.3653    4.4205    0.0000 C   0  0  0  0  0  0  0  0  0  0  0  0
    0.9636    4.9546    0.0000 C   0  0  0  0  0  0  0  0  0  0  0  0
   -0.1998    4.0078    0.0000 C   0  0  0  0  0  0  0  0  0  0  0  0
    0.0385    2.5268    0.0000 C   0  0  0  0  0  0  0  0  0  0  0  0
    0.6205   -0.5515    0.0000 C   0  0  0  0  0  0  0  0  0  0  0  0
   -0.8616   -0.3205    0.0000 C   0  0  0  0  0  0  0  0  0  0  0  0
   -1.4026    1.0785    0.0000 C   0  0  0  0  0  0  0  0  0  0  0  0
   -0.4615    2.2466    0.0000 C   0  0  0  0  0  0  0  0  0  0  0  0
   -1.0025    3.6456    0.0000 C   0  0  0  0  0  0  0  0  0  0  0  0
   -2.4846    3.8766    0.0000 C   0  0  0  0  0  0  0  0  0  0  0  0
   -3.4257    2.7085    0.0000 C   0  0  0  0  0  0  0  0  0  0  0  0
   -2.8847    1.3095    0.0000 C   0  0  0  0  0  0  0  0  0  0  0  0
   -3.8258    0.1414    0.0000 C   0  0  0  0  0  0  0  0  0  0  0  0
   -4.9078    2.9395    0.0000 F   0  0  0  0  0  0  0  0  0  0  0  0
    6.9829   -0.0250    0.0000 O   0  0  0  0  0  0  0  0  0  0  0  0
   -4.0085   -0.8770    0.0000 C   0  0  0  0  0  0  0  0  0  0  0  0
   -5.5062   -0.9592    0.0000 O   0  0  0  0  0  0  0  0  0  0  0  0
  1  2  1  0
  1  6  1  0
  2  3  1  0
  3  4  1  0
  4  5  1  0
  4 34  1  0
  5  6  1  0
  6  7  1  0
  7  8  2  0
  7  9  1  0
  9 10  1  0
  9 23  2  0
 10 11  2  0
 10 15  1  0
 11 12  1  0
 12 13  1  0
 13 14  1  0
 13 33  2  0
 14 15  2  0
 15 16  1  0
 16 17  1  0
 16 23  1  0
 17 18  1  0
 17 22  1  0
 18 19  1  0
 19 20  1  0
 20 21  1  0
 21 22  1  0
 23 24  1  0
 24 25  1  0
 25 26  2  0
 25 30  1  0
 26 27  1  0
 27 28  2  0
 28 29  1  0
 29 30  2  0
 29 32  1  0
 30 31  1  0
 34 35  1  0
M  END
>  <EXTREG>  (116) 
b3a7g

>  <ID>  (116) 
b3a7g

>  <RENIN_IC50>  (116) 
1.1000

>  <ORIGIN>  (116) 
BMCL2011B

>  <RENIN_PIC50>  (116) 
5.9586

>  <TRAIN>  (116) 
train

>  <TRAIN_CLASS>  (116) 
0

$$$$
b2a4i
     RDKit          2D

 35 39  0  0  0  0  0  0  0  0999 V2000
   -2.5154   -4.1200    0.0000 C   0  0  0  0  0  0  0  0  0  0  0  0
   -3.9817   -3.8037    0.0000 C   0  0  0  0  0  0  0  0  0  0  0  0
   -4.4408   -2.3757    0.0000 N   0  0  0  0  0  0  0  0  0  0  0  0
   -3.4337   -1.2640    0.0000 C   0  0  0  0  0  0  0  0  0  0  0  0
   -1.9675   -1.5804    0.0000 C   0  0  0  0  0  0  0  0  0  0  0  0
   -1.5083   -3.0084    0.0000 N   0  0  0  0  0  0  0  0  0  0  0  0
   -0.0421   -3.3247    0.0000 C   0  0  0  0  0  0  0  0  0  0  0  0
    0.4171   -4.7527    0.0000 O   0  0  0  0  0  0  0  0  0  0  0  0
    0.9650   -2.2131    0.0000 C   0  0  0  0  0  0  0  0  0  0  0  0
    2.4563   -2.3744    0.0000 C   0  0  0  0  0  0  0  0  0  0  0  0
    3.3343   -3.5907    0.0000 N   0  0  0  0  0  0  0  0  0  0  0  0
    4.8265   -3.4384    0.0000 C   0  0  0  0  0  0  0  0  0  0  0  0
    5.4408   -2.0700    0.0000 C   0  0  0  0  0  0  0  0  0  0  0  0
    4.5629   -0.8538    0.0000 C   0  0  0  0  0  0  0  0  0  0  0  0
    3.0706   -1.0060    0.0000 C   0  0  0  0  0  0  0  0  0  0  0  0
    1.9590    0.0011    0.0000 N   0  0  0  0  0  0  0  0  0  0  0  0
    2.1203    1.4924    0.0000 C   0  0  0  0  0  0  0  0  0  0  0  0
    0.9095    2.3778    0.0000 C   0  0  0  0  0  0  0  0  0  0  0  0
    1.0709    3.8691    0.0000 C   0  0  0  0  0  0  0  0  0  0  0  0
    2.4430    4.4750    0.0000 C   0  0  0  0  0  0  0  0  0  0  0  0
    3.6539    3.5896    0.0000 C   0  0  0  0  0  0  0  0  0  0  0  0
    3.4925    2.0983    0.0000 C   0  0  0  0  0  0  0  0  0  0  0  0
    0.6577   -0.7449    0.0000 C   0  0  0  0  0  0  0  0  0  0  0  0
   -0.7108   -0.1306    0.0000 O   0  0  0  0  0  0  0  0  0  0  0  0
   -0.8630    1.3616    0.0000 C   0  0  0  0  0  0  0  0  0  0  0  0
   -2.2315    1.9759    0.0000 C   0  0  0  0  0  0  0  0  0  0  0  0
   -2.3837    3.4682    0.0000 C   0  0  0  0  0  0  0  0  0  0  0  0
   -1.1675    4.3461    0.0000 C   0  0  0  0  0  0  0  0  0  0  0  0
    0.2010    3.7318    0.0000 C   0  0  0  0  0  0  0  0  0  0  0  0
    0.3532    2.2396    0.0000 C   0  0  0  0  0  0  0  0  0  0  0  0
    1.8296    1.9747    0.0000 C   0  0  0  0  0  0  0  0  0  0  0  0
   -3.4477    1.0979    0.0000 C   0  0  0  0  0  0  0  0  0  0  0  0
   -3.8929    0.1640    0.0000 C   0  0  0  0  0  0  0  0  0  0  0  0
   -5.3592    0.4803    0.0000 C   0  0  0  0  0  0  0  0  0  0  0  0
   -5.8183    1.9083    0.0000 C   0  0  0  0  0  0  0  0  0  0  0  0
  1  2  1  0
  1  6  1  0
  2  3  1  0
  3  4  1  0
  4  5  1  0
  4 33  1  0
  5  6  1  0
  6  7  1  0
  7  8  2  0
  7  9  1  0
  9 10  1  0
  9 23  2  0
 10 11  2  0
 10 15  1  0
 11 12  1  0
 12 13  2  0
 13 14  1  0
 14 15  2  0
 15 16  1  0
 16 17  1  0
 16 23  1  0
 17 18  2  0
 17 22  1  0
 18 19  1  0
 19 20  2  0
 20 21  1  0
 21 22  2  0
 23 24  1  0
 24 25  1  0
 25 26  2  0
 25 30  1  0
 26 27  1  0
 26 32  1  0
 27 28  2  0
 28 29  1  0
 29 30  2  0
 30 31  1  0
 33 34  1  0
 34 35  1  0
M  END
>  <EXTREG>  (117) 
b2a4i

>  <ID>  (117) 
b2a4i

>  <RENIN_IC50>  (117) 
1.1800

>  <ORIGIN>  (117) 
BMCL2011A

>  <RENIN_PIC50>  (117) 
5.9281

>  <TRAIN>  (117) 
train

>  <TRAIN_CLASS>  (117) 
0

$$$$
b3a4f
     RDKit          2D

 34 38  0  0  0  0  0  0  0  0999 V2000
    3.3424   -3.6114    0.0000 C   0  0  0  0  0  0  0  0  0  0  0  0
    2.8329   -5.0222    0.0000 C   0  0  0  0  0  0  0  0  0  0  0  0
    1.3564   -5.2864    0.0000 N   0  0  0  0  0  0  0  0  0  0  0  0
    0.3893   -4.1398    0.0000 C   0  0  0  0  0  0  0  0  0  0  0  0
    0.8987   -2.7290    0.0000 C   0  0  0  0  0  0  0  0  0  0  0  0
    2.3753   -2.4648    0.0000 N   0  0  0  0  0  0  0  0  0  0  0  0
    2.8847   -1.0539    0.0000 C   0  0  0  0  0  0  0  0  0  0  0  0
    4.3613   -0.7897    0.0000 O   0  0  0  0  0  0  0  0  0  0  0  0
    1.9176    0.0927    0.0000 C   0  0  0  0  0  0  0  0  0  0  0  0
    2.2768    1.5490    0.0000 C   0  0  0  0  0  0  0  0  0  0  0  0
    3.5994    2.2566    0.0000 C   0  0  0  0  0  0  0  0  0  0  0  0
    3.6480    3.7558    0.0000 C   0  0  0  0  0  0  0  0  0  0  0  0
    2.3739    4.5475    0.0000 C   0  0  0  0  0  0  0  0  0  0  0  0
    1.0512    3.8399    0.0000 N   0  0  0  0  0  0  0  0  0  0  0  0
    1.0027    2.3407    0.0000 C   0  0  0  0  0  0  0  0  0  0  0  0
   -0.1439    1.3736    0.0000 N   0  0  0  0  0  0  0  0  0  0  0  0
   -1.6003    1.7328    0.0000 C   0  0  0  0  0  0  0  0  0  0  0  0
   -2.6395    0.6511    0.0000 C   0  0  0  0  0  0  0  0  0  0  0  0
   -4.0959    1.0103    0.0000 C   0  0  0  0  0  0  0  0  0  0  0  0
   -4.5130    2.4511    0.0000 C   0  0  0  0  0  0  0  0  0  0  0  0
   -3.4737    3.5328    0.0000 C   0  0  0  0  0  0  0  0  0  0  0  0
   -2.0174    3.1736    0.0000 C   0  0  0  0  0  0  0  0  0  0  0  0
    0.4215   -0.0158    0.0000 C   0  0  0  0  0  0  0  0  0  0  0  0
   -0.3701   -1.2898    0.0000 O   0  0  0  0  0  0  0  0  0  0  0  0
   -1.8693   -1.2413    0.0000 C   0  0  0  0  0  0  0  0  0  0  0  0
   -2.6609   -2.5154    0.0000 C   0  0  0  0  0  0  0  0  0  0  0  0
   -4.1602   -2.4669    0.0000 C   0  0  0  0  0  0  0  0  0  0  0  0
   -4.8677   -1.1442    0.0000 C   0  0  0  0  0  0  0  0  0  0  0  0
   -4.0761    0.1299    0.0000 C   0  0  0  0  0  0  0  0  0  0  0  0
   -2.5769    0.0813    0.0000 C   0  0  0  0  0  0  0  0  0  0  0  0
   -4.7837    1.4525    0.0000 F   0  0  0  0  0  0  0  0  0  0  0  0
   -1.9534   -3.8380    0.0000 C   0  0  0  0  0  0  0  0  0  0  0  0
    4.8735    1.4650    0.0000 C   0  0  0  0  0  0  0  0  0  0  0  0
    6.1961    2.1726    0.0000 C   0  0  0  0  0  0  0  0  0  0  0  0
  1  2  1  0
  1  6  1  0
  2  3  1  0
  3  4  1  0
  4  5  1  0
  5  6  1  0
  6  7  1  0
  7  8  2  0
  7  9  1  0
  9 10  1  0
  9 23  2  0
 10 11  2  0
 10 15  1  0
 11 12  1  0
 11 33  1  0
 12 13  2  0
 13 14  1  0
 14 15  2  0
 15 16  1  0
 16 17  1  0
 16 23  1  0
 17 18  2  0
 17 22  1  0
 18 19  1  0
 19 20  2  0
 20 21  1  0
 21 22  2  0
 23 24  1  0
 24 25  1  0
 25 26  2  0
 25 30  1  0
 26 27  1  0
 26 32  1  0
 27 28  2  0
 28 29  1  0
 29 30  2  0
 29 31  1  0
 33 34  1  0
M  END
>  <EXTREG>  (118) 
b3a4f

>  <ID>  (118) 
b3a4f

>  <RENIN_IC50>  (118) 
1.2300

>  <ORIGIN>  (118) 
BMCL2011B

>  <RENIN_PIC50>  (118) 
5.9101

>  <TRAIN>  (118) 
train

>  <TRAIN_CLASS>  (118) 
0

$$$$
b1i5b
     RDKit          2D

 34 38  0  0  0  0  0  0  0  0999 V2000
    1.9536   -4.6197    0.0000 C   0  0  0  0  0  0  0  0  0  0  0  0
    1.0167   -5.7911    0.0000 C   0  0  0  0  0  0  0  0  0  0  0  0
   -0.4662   -5.5654    0.0000 N   0  0  0  0  0  0  0  0  0  0  0  0
   -1.0122   -4.1683    0.0000 C   0  0  0  0  0  0  0  0  0  0  0  0
   -0.0753   -2.9969    0.0000 C   0  0  0  0  0  0  0  0  0  0  0  0
    1.4076   -3.2226    0.0000 N   0  0  0  0  0  0  0  0  0  0  0  0
    2.3445   -2.0512    0.0000 C   0  0  0  0  0  0  0  0  0  0  0  0
    3.8274   -2.2768    0.0000 O   0  0  0  0  0  0  0  0  0  0  0  0
    1.7985   -0.6541    0.0000 C   0  0  0  0  0  0  0  0  0  0  0  0
    2.6078    0.6089    0.0000 C   0  0  0  0  0  0  0  0  0  0  0  0
    4.0879    0.8525    0.0000 C   0  0  0  0  0  0  0  0  0  0  0  0
    4.6170    2.2561    0.0000 C   0  0  0  0  0  0  0  0  0  0  0  0
    3.6660    3.4161    0.0000 C   0  0  0  0  0  0  0  0  0  0  0  0
    2.1859    3.1724    0.0000 C   0  0  0  0  0  0  0  0  0  0  0  0
    1.6568    1.7688    0.0000 C   0  0  0  0  0  0  0  0  0  0  0  0
    0.2597    1.2228    0.0000 N   0  0  0  0  0  0  0  0  0  0  0  0
   -1.0032    2.0322    0.0000 C   0  0  0  0  0  0  0  0  0  0  0  0
   -2.3356    1.3431    0.0000 C   0  0  0  0  0  0  0  0  0  0  0  0
   -3.5985    2.1524    0.0000 C   0  0  0  0  0  0  0  0  0  0  0  0
   -3.5290    3.6508    0.0000 C   0  0  0  0  0  0  0  0  0  0  0  0
   -2.1967    4.3399    0.0000 C   0  0  0  0  0  0  0  0  0  0  0  0
   -0.9337    3.5306    0.0000 C   0  0  0  0  0  0  0  0  0  0  0  0
    0.3473   -0.2746    0.0000 C   0  0  0  0  0  0  0  0  0  0  0  0
   -0.8127   -1.2256    0.0000 O   0  0  0  0  0  0  0  0  0  0  0  0
   -2.2163   -0.6966    0.0000 C   0  0  0  0  0  0  0  0  0  0  0  0
   -2.4599    0.7835    0.0000 C   0  0  0  0  0  0  0  0  0  0  0  0
   -3.8635    1.3126    0.0000 C   0  0  0  0  0  0  0  0  0  0  0  0
   -5.0235    0.3616    0.0000 C   0  0  0  0  0  0  0  0  0  0  0  0
   -4.7799   -1.1185    0.0000 C   0  0  0  0  0  0  0  0  0  0  0  0
   -3.3763   -1.6476    0.0000 C   0  0  0  0  0  0  0  0  0  0  0  0
   -3.1327   -3.1277    0.0000 C   0  0  0  0  0  0  0  0  0  0  0  0
   -4.1071    2.7927    0.0000 F   0  0  0  0  0  0  0  0  0  0  0  0
    6.0971    2.4997    0.0000 O   0  0  0  0  0  0  0  0  0  0  0  0
    7.0481    1.3397    0.0000 C   0  0  0  0  0  0  0  0  0  0  0  0
  1  2  1  0
  1  6  1  0
  2  3  1  0
  3  4  1  0
  4  5  1  0
  5  6  1  0
  6  7  1  0
  7  8  2  0
  7  9  1  0
  9 10  1  0
  9 23  2  0
 10 11  2  0
 10 15  1  0
 11 12  1  0
 12 13  2  0
 12 33  1  0
 13 14  1  0
 14 15  2  0
 15 16  1  0
 16 17  1  0
 16 23  1  0
 17 18  2  0
 17 22  1  0
 18 19  1  0
 19 20  2  0
 20 21  1  0
 21 22  2  0
 23 24  1  0
 24 25  1  0
 25 26  2  0
 25 30  1  0
 26 27  1  0
 27 28  2  0
 27 32  1  0
 28 29  1  0
 29 30  2  0
 30 31  1  0
 33 34  1  0
M  END
>  <EXTREG>  (119) 
b1i5b

>  <ID>  (119) 
b1i5b

>  <RENIN_IC50>  (119) 
1.3500

>  <ORIGIN>  (119) 
BMCL2010

>  <RENIN_PIC50>  (119) 
5.8697

>  <TRAIN>  (119) 
test

>  <TRAIN_CLASS>  (119) 
1

$$$$
b2a3r
     RDKit          2D

 32 36  0  0  0  0  0  0  0  0999 V2000
    3.4020   -3.6323    0.0000 C   0  0  0  0  0  0  0  0  0  0  0  0
    2.7765   -4.9957    0.0000 C   0  0  0  0  0  0  0  0  0  0  0  0
    1.2830   -5.1356    0.0000 N   0  0  0  0  0  0  0  0  0  0  0  0
    0.4151   -3.9122    0.0000 C   0  0  0  0  0  0  0  0  0  0  0  0
    1.0406   -2.5489    0.0000 C   0  0  0  0  0  0  0  0  0  0  0  0
    2.5341   -2.4089    0.0000 N   0  0  0  0  0  0  0  0  0  0  0  0
    3.1596   -1.0456    0.0000 C   0  0  0  0  0  0  0  0  0  0  0  0
    4.6531   -0.9056    0.0000 O   0  0  0  0  0  0  0  0  0  0  0  0
    2.2917    0.1778    0.0000 C   0  0  0  0  0  0  0  0  0  0  0  0
    2.7713    1.5991    0.0000 C   0  0  0  0  0  0  0  0  0  0  0  0
    4.1484    2.1937    0.0000 N   0  0  0  0  0  0  0  0  0  0  0  0
    4.3220    3.6836    0.0000 C   0  0  0  0  0  0  0  0  0  0  0  0
    3.1185    4.5789    0.0000 C   0  0  0  0  0  0  0  0  0  0  0  0
    1.7414    3.9843    0.0000 C   0  0  0  0  0  0  0  0  0  0  0  0
    1.5678    2.4944    0.0000 C   0  0  0  0  0  0  0  0  0  0  0  0
    0.3444    1.6265    0.0000 N   0  0  0  0  0  0  0  0  0  0  0  0
   -1.0769    2.1061    0.0000 C   0  0  0  0  0  0  0  0  0  0  0  0
   -1.3722    3.5767    0.0000 C   0  0  0  0  0  0  0  0  0  0  0  0
   -2.7934    4.0563    0.0000 C   0  0  0  0  0  0  0  0  0  0  0  0
   -3.9194    3.0653    0.0000 C   0  0  0  0  0  0  0  0  0  0  0  0
   -3.6241    1.5946    0.0000 C   0  0  0  0  0  0  0  0  0  0  0  0
   -2.2029    1.1150    0.0000 C   0  0  0  0  0  0  0  0  0  0  0  0
    0.7918    0.1947    0.0000 C   0  0  0  0  0  0  0  0  0  0  0  0
   -0.1036   -1.0088    0.0000 C   0  0  0  0  0  0  0  0  0  0  0  0
   -1.5935   -0.8351    0.0000 C   0  0  0  0  0  0  0  0  0  0  0  0
   -2.1881    0.5420    0.0000 C   0  0  0  0  0  0  0  0  0  0  0  0
   -3.6780    0.7156    0.0000 C   0  0  0  0  0  0  0  0  0  0  0  0
   -4.5733   -0.4879    0.0000 C   0  0  0  0  0  0  0  0  0  0  0  0
   -3.9787   -1.8650    0.0000 C   0  0  0  0  0  0  0  0  0  0  0  0
   -2.4888   -2.0386    0.0000 C   0  0  0  0  0  0  0  0  0  0  0  0
   -1.8942   -3.4157    0.0000 F   0  0  0  0  0  0  0  0  0  0  0  0
   -4.8740   -3.0685    0.0000 F   0  0  0  0  0  0  0  0  0  0  0  0
  1  2  1  0
  1  6  1  0
  2  3  1  0
  3  4  1  0
  4  5  1  0
  5  6  1  0
  6  7  1  0
  7  8  2  0
  7  9  1  0
  9 10  1  0
  9 23  2  0
 10 11  2  0
 10 15  1  0
 11 12  1  0
 12 13  2  0
 13 14  1  0
 14 15  2  0
 15 16  1  0
 16 17  1  0
 16 23  1  0
 17 18  2  0
 17 22  1  0
 18 19  1  0
 19 20  2  0
 20 21  1  0
 21 22  2  0
 23 24  1  0
 24 25  1  0
 25 26  2  0
 25 30  1  0
 26 27  1  0
 27 28  2  0
 28 29  1  0
 29 30  2  0
 29 32  1  0
 30 31  1  0
M  END
>  <EXTREG>  (120) 
b2a3r

>  <ID>  (120) 
b2a3r

>  <RENIN_IC50>  (120) 
1.4600

>  <ORIGIN>  (120) 
BMCL2011A

>  <RENIN_PIC50>  (120) 
5.8356

>  <TRAIN>  (120) 
train

>  <TRAIN_CLASS>  (120) 
0

$$$$
b1i3d
     RDKit          2D

 32 36  0  0  0  0  0  0  0  0999 V2000
   -4.2471   -2.2866    0.0000 C   0  0  0  0  0  0  0  0  0  0  0  0
   -5.4104   -1.3396    0.0000 C   0  0  0  0  0  0  0  0  0  0  0  0
   -5.1718    0.1413    0.0000 N   0  0  0  0  0  0  0  0  0  0  0  0
   -3.7700    0.6752    0.0000 C   0  0  0  0  0  0  0  0  0  0  0  0
   -2.6068   -0.2719    0.0000 C   0  0  0  0  0  0  0  0  0  0  0  0
   -2.8453   -1.7528    0.0000 N   0  0  0  0  0  0  0  0  0  0  0  0
   -1.6821   -2.6998    0.0000 C   0  0  0  0  0  0  0  0  0  0  0  0
   -1.9206   -4.1807    0.0000 O   0  0  0  0  0  0  0  0  0  0  0  0
   -0.2803   -2.1659    0.0000 C   0  0  0  0  0  0  0  0  0  0  0  0
    0.9755   -2.9862    0.0000 C   0  0  0  0  0  0  0  0  0  0  0  0
    1.2063   -4.4683    0.0000 C   0  0  0  0  0  0  0  0  0  0  0  0
    2.6053   -5.0096    0.0000 C   0  0  0  0  0  0  0  0  0  0  0  0
    3.7734   -4.0686    0.0000 C   0  0  0  0  0  0  0  0  0  0  0  0
    3.5427   -2.5865    0.0000 C   0  0  0  0  0  0  0  0  0  0  0  0
    2.1437   -2.0453    0.0000 C   0  0  0  0  0  0  0  0  0  0  0  0
    1.6098   -0.6435    0.0000 N   0  0  0  0  0  0  0  0  0  0  0  0
    2.4301    0.6124    0.0000 C   0  0  0  0  0  0  0  0  0  0  0  0
    1.7526    1.9507    0.0000 C   0  0  0  0  0  0  0  0  0  0  0  0
    2.5729    3.2065    0.0000 C   0  0  0  0  0  0  0  0  0  0  0  0
    4.0706    3.1241    0.0000 C   0  0  0  0  0  0  0  0  0  0  0  0
    4.7481    1.7858    0.0000 C   0  0  0  0  0  0  0  0  0  0  0  0
    3.9278    0.5299    0.0000 C   0  0  0  0  0  0  0  0  0  0  0  0
    0.1117   -0.7181    0.0000 C   0  0  0  0  0  0  0  0  0  0  0  0
   -0.8292    0.4501    0.0000 O   0  0  0  0  0  0  0  0  0  0  0  0
   -0.2880    1.8491    0.0000 C   0  0  0  0  0  0  0  0  0  0  0  0
   -1.2289    3.0173    0.0000 C   0  0  0  0  0  0  0  0  0  0  0  0
   -0.6877    4.4162    0.0000 C   0  0  0  0  0  0  0  0  0  0  0  0
    0.7945    4.6470    0.0000 C   0  0  0  0  0  0  0  0  0  0  0  0
    1.7354    3.4788    0.0000 C   0  0  0  0  0  0  0  0  0  0  0  0
    1.1941    2.0798    0.0000 C   0  0  0  0  0  0  0  0  0  0  0  0
   -3.5315    2.1561    0.0000 C   0  0  0  0  0  0  0  0  0  0  0  0
   -4.6947    3.1031    0.0000 O   0  0  0  0  0  0  0  0  0  0  0  0
  1  2  1  0
  1  6  1  0
  2  3  1  0
  3  4  1  0
  4  5  1  0
  4 31  1  0
  5  6  1  0
  6  7  1  0
  7  8  2  0
  7  9  1  0
  9 10  1  0
  9 23  2  0
 10 11  2  0
 10 15  1  0
 11 12  1  0
 12 13  2  0
 13 14  1  0
 14 15  2  0
 15 16  1  0
 16 17  1  0
 16 23  1  0
 17 18  2  0
 17 22  1  0
 18 19  1  0
 19 20  2  0
 20 21  1  0
 21 22  2  0
 23 24  1  0
 24 25  1  0
 25 26  2  0
 25 30  1  0
 26 27  1  0
 27 28  2  0
 28 29  1  0
 29 30  2  0
 31 32  1  0
M  END
>  <EXTREG>  (121) 
b1i3d

>  <ID>  (121) 
b1i3d

>  <RENIN_IC50>  (121) 
1.6000

>  <ORIGIN>  (121) 
BMCL2010

>  <RENIN_PIC50>  (121) 
5.7959

>  <TRAIN>  (121) 
train

>  <TRAIN_CLASS>  (121) 
0

$$$$
b2a5i
     RDKit          2D

 33 37  0  0  0  0  0  0  0  0999 V2000
    1.1911   -4.8127    0.0000 C   0  0  0  0  0  0  0  0  0  0  0  0
    0.0190   -5.7487    0.0000 C   0  0  0  0  0  0  0  0  0  0  0  0
   -1.3777   -5.2017    0.0000 N   0  0  0  0  0  0  0  0  0  0  0  0
   -1.6023   -3.7186    0.0000 C   0  0  0  0  0  0  0  0  0  0  0  0
   -0.4302   -2.7826    0.0000 C   0  0  0  0  0  0  0  0  0  0  0  0
    0.9665   -3.3296    0.0000 N   0  0  0  0  0  0  0  0  0  0  0  0
    2.1386   -2.3935    0.0000 C   0  0  0  0  0  0  0  0  0  0  0  0
    3.5353   -2.9406    0.0000 O   0  0  0  0  0  0  0  0  0  0  0  0
    1.9140   -0.9105    0.0000 C   0  0  0  0  0  0  0  0  0  0  0  0
    2.9818    0.1430    0.0000 C   0  0  0  0  0  0  0  0  0  0  0  0
    4.4792    0.0543    0.0000 N   0  0  0  0  0  0  0  0  0  0  0  0
    5.3047    1.3068    0.0000 C   0  0  0  0  0  0  0  0  0  0  0  0
    4.6328    2.6479    0.0000 C   0  0  0  0  0  0  0  0  0  0  0  0
    3.1354    2.7365    0.0000 C   0  0  0  0  0  0  0  0  0  0  0  0
    2.3099    1.4841    0.0000 C   0  0  0  0  0  0  0  0  0  0  0  0
    0.8268    1.2595    0.0000 N   0  0  0  0  0  0  0  0  0  0  0  0
   -0.2266    2.3273    0.0000 C   0  0  0  0  0  0  0  0  0  0  0  0
    0.1714    3.7735    0.0000 C   0  0  0  0  0  0  0  0  0  0  0  0
   -0.8820    4.8414    0.0000 C   0  0  0  0  0  0  0  0  0  0  0  0
   -2.3335    4.4630    0.0000 C   0  0  0  0  0  0  0  0  0  0  0  0
   -2.7315    3.0167    0.0000 C   0  0  0  0  0  0  0  0  0  0  0  0
   -1.6781    1.9489    0.0000 C   0  0  0  0  0  0  0  0  0  0  0  0
    0.5821   -0.2204    0.0000 C   0  0  0  0  0  0  0  0  0  0  0  0
   -0.7590   -0.8923    0.0000 C   0  0  0  0  0  0  0  0  0  0  0  0
   -2.0114   -0.0669    0.0000 C   0  0  0  0  0  0  0  0  0  0  0  0
   -1.9227    1.4305    0.0000 C   0  0  0  0  0  0  0  0  0  0  0  0
   -3.1752    2.2560    0.0000 C   0  0  0  0  0  0  0  0  0  0  0  0
   -4.5163    1.5841    0.0000 C   0  0  0  0  0  0  0  0  0  0  0  0
   -4.6049    0.0867    0.0000 C   0  0  0  0  0  0  0  0  0  0  0  0
   -3.3525   -0.7388    0.0000 C   0  0  0  0  0  0  0  0  0  0  0  0
   -3.4411   -2.2361    0.0000 C   0  0  0  0  0  0  0  0  0  0  0  0
   -5.9460   -0.5852    0.0000 F   0  0  0  0  0  0  0  0  0  0  0  0
    6.8021    1.2181    0.0000 O   0  0  0  0  0  0  0  0  0  0  0  0
  1  2  1  0
  1  6  1  0
  2  3  1  0
  3  4  1  0
  4  5  1  0
  5  6  1  0
  6  7  1  0
  7  8  2  0
  7  9  1  0
  9 10  1  0
  9 23  2  0
 10 11  1  0
 10 15  2  0
 11 12  1  0
 12 13  1  0
 12 33  2  0
 13 14  2  0
 14 15  1  0
 15 16  1  0
 16 17  1  0
 16 23  1  0
 17 18  2  0
 17 22  1  0
 18 19  1  0
 19 20  2  0
 20 21  1  0
 21 22  2  0
 23 24  1  0
 24 25  1  0
 25 26  2  0
 25 30  1  0
 26 27  1  0
 27 28  2  0
 28 29  1  0
 29 30  2  0
 29 32  1  0
 30 31  1  0
M  END
>  <EXTREG>  (122) 
b2a5i

>  <ID>  (122) 
b2a5i

>  <RENIN_IC50>  (122) 
1.6000

>  <ORIGIN>  (122) 
BMCL2011A

>  <RENIN_PIC50>  (122) 
5.7959

>  <TRAIN>  (122) 
train

>  <TRAIN_CLASS>  (122) 
0

$$$$
b3a3a
     RDKit          2D

 30 34  0  0  0  0  0  0  0  0999 V2000
    4.8318   -1.2466    0.0000 C   0  0  0  0  0  0  0  0  0  0  0  0
    5.1270   -2.7172    0.0000 C   0  0  0  0  0  0  0  0  0  0  0  0
    4.0010   -3.7083    0.0000 N   0  0  0  0  0  0  0  0  0  0  0  0
    2.5798   -3.2286    0.0000 C   0  0  0  0  0  0  0  0  0  0  0  0
    2.2845   -1.7580    0.0000 C   0  0  0  0  0  0  0  0  0  0  0  0
    3.4105   -0.7669    0.0000 N   0  0  0  0  0  0  0  0  0  0  0  0
    3.1153    0.7037    0.0000 C   0  0  0  0  0  0  0  0  0  0  0  0
    4.2413    1.6947    0.0000 O   0  0  0  0  0  0  0  0  0  0  0  0
    1.6940    1.1834    0.0000 C   0  0  0  0  0  0  0  0  0  0  0  0
    1.2467    2.6151    0.0000 C   0  0  0  0  0  0  0  0  0  0  0  0
    2.0113    3.9056    0.0000 C   0  0  0  0  0  0  0  0  0  0  0  0
    1.2761    5.2130    0.0000 C   0  0  0  0  0  0  0  0  0  0  0  0
   -0.2238    5.2300    0.0000 C   0  0  0  0  0  0  0  0  0  0  0  0
   -0.9885    3.9395    0.0000 N   0  0  0  0  0  0  0  0  0  0  0  0
   -0.2532    2.6321    0.0000 C   0  0  0  0  0  0  0  0  0  0  0  0
   -0.7329    1.2108    0.0000 N   0  0  0  0  0  0  0  0  0  0  0  0
   -2.1646    0.7634    0.0000 C   0  0  0  0  0  0  0  0  0  0  0  0
   -2.4930   -0.7002    0.0000 C   0  0  0  0  0  0  0  0  0  0  0  0
   -3.9248   -1.1475    0.0000 C   0  0  0  0  0  0  0  0  0  0  0  0
   -5.0281   -0.1313    0.0000 C   0  0  0  0  0  0  0  0  0  0  0  0
   -4.6996    1.3323    0.0000 C   0  0  0  0  0  0  0  0  0  0  0  0
   -3.2679    1.7797    0.0000 C   0  0  0  0  0  0  0  0  0  0  0  0
    0.4706    0.3155    0.0000 C   0  0  0  0  0  0  0  0  0  0  0  0
    0.4537   -1.1844    0.0000 O   0  0  0  0  0  0  0  0  0  0  0  0
   -0.8538   -1.9197    0.0000 C   0  0  0  0  0  0  0  0  0  0  0  0
   -0.8708   -3.4196    0.0000 C   0  0  0  0  0  0  0  0  0  0  0  0
   -2.1782   -4.1549    0.0000 C   0  0  0  0  0  0  0  0  0  0  0  0
   -3.4687   -3.3902    0.0000 C   0  0  0  0  0  0  0  0  0  0  0  0
   -3.4517   -1.8903    0.0000 C   0  0  0  0  0  0  0  0  0  0  0  0
   -2.1443   -1.1551    0.0000 C   0  0  0  0  0  0  0  0  0  0  0  0
  1  2  1  0
  1  6  1  0
  2  3  1  0
  3  4  1  0
  4  5  1  0
  5  6  1  0
  6  7  1  0
  7  8  2  0
  7  9  1  0
  9 10  1  0
  9 23  2  0
 10 11  2  0
 10 15  1  0
 11 12  1  0
 12 13  2  0
 13 14  1  0
 14 15  2  0
 15 16  1  0
 16 17  1  0
 16 23  1  0
 17 18  2  0
 17 22  1  0
 18 19  1  0
 19 20  2  0
 20 21  1  0
 21 22  2  0
 23 24  1  0
 24 25  1  0
 25 26  2  0
 25 30  1  0
 26 27  1  0
 27 28  2  0
 28 29  1  0
 29 30  2  0
M  END
>  <EXTREG>  (123) 
b3a3a

>  <ID>  (123) 
b3a3a

>  <RENIN_IC50>  (123) 
1.8300

>  <ORIGIN>  (123) 
BMCL2011B

>  <RENIN_PIC50>  (123) 
5.7375

>  <TRAIN>  (123) 
train

>  <TRAIN_CLASS>  (123) 
0

$$$$
b3a4h
     RDKit          2D

 35 39  0  0  0  0  0  0  0  0999 V2000
    2.8624   -3.8634    0.0000 C   0  0  0  0  0  0  0  0  0  0  0  0
    2.2543   -5.2346    0.0000 C   0  0  0  0  0  0  0  0  0  0  0  0
    0.7627   -5.3935    0.0000 N   0  0  0  0  0  0  0  0  0  0  0  0
   -0.1207   -4.1812    0.0000 C   0  0  0  0  0  0  0  0  0  0  0  0
    0.4874   -2.8100    0.0000 C   0  0  0  0  0  0  0  0  0  0  0  0
    1.9790   -2.6511    0.0000 N   0  0  0  0  0  0  0  0  0  0  0  0
    2.5871   -1.2799    0.0000 C   0  0  0  0  0  0  0  0  0  0  0  0
    4.0787   -1.1210    0.0000 O   0  0  0  0  0  0  0  0  0  0  0  0
    1.7037   -0.0677    0.0000 C   0  0  0  0  0  0  0  0  0  0  0  0
    2.1651    1.3596    0.0000 C   0  0  0  0  0  0  0  0  0  0  0  0
    3.5346    1.9717    0.0000 C   0  0  0  0  0  0  0  0  0  0  0  0
    3.6892    3.4637    0.0000 C   0  0  0  0  0  0  0  0  0  0  0  0
    2.4744    4.3436    0.0000 C   0  0  0  0  0  0  0  0  0  0  0  0
    1.1050    3.7315    0.0000 N   0  0  0  0  0  0  0  0  0  0  0  0
    0.9504    2.2395    0.0000 C   0  0  0  0  0  0  0  0  0  0  0  0
   -0.2619    1.3561    0.0000 N   0  0  0  0  0  0  0  0  0  0  0  0
   -1.6892    1.8176    0.0000 C   0  0  0  0  0  0  0  0  0  0  0  0
   -2.8024    0.8123    0.0000 C   0  0  0  0  0  0  0  0  0  0  0  0
   -4.2297    1.2737    0.0000 C   0  0  0  0  0  0  0  0  0  0  0  0
   -4.5437    2.7405    0.0000 C   0  0  0  0  0  0  0  0  0  0  0  0
   -3.4304    3.7458    0.0000 C   0  0  0  0  0  0  0  0  0  0  0  0
   -2.0031    3.2843    0.0000 C   0  0  0  0  0  0  0  0  0  0  0  0
    0.2037   -0.0698    0.0000 C   0  0  0  0  0  0  0  0  0  0  0  0
   -0.6763   -1.2846    0.0000 O   0  0  0  0  0  0  0  0  0  0  0  0
   -2.1683   -1.1300    0.0000 C   0  0  0  0  0  0  0  0  0  0  0  0
   -3.0482   -2.3448    0.0000 C   0  0  0  0  0  0  0  0  0  0  0  0
   -4.5402   -2.1901    0.0000 C   0  0  0  0  0  0  0  0  0  0  0  0
   -5.1523   -0.8207    0.0000 C   0  0  0  0  0  0  0  0  0  0  0  0
   -4.2723    0.3941    0.0000 C   0  0  0  0  0  0  0  0  0  0  0  0
   -2.7803    0.2395    0.0000 C   0  0  0  0  0  0  0  0  0  0  0  0
   -4.8844    1.7635    0.0000 F   0  0  0  0  0  0  0  0  0  0  0  0
   -2.4361   -3.7142    0.0000 C   0  0  0  0  0  0  0  0  0  0  0  0
    4.7494    1.0917    0.0000 C   0  0  0  0  0  0  0  0  0  0  0  0
    6.1188    1.7038    0.0000 C   0  0  0  0  0  0  0  0  0  0  0  0
    7.3336    0.8239    0.0000 C   0  0  0  0  0  0  0  0  0  0  0  0
  1  2  1  0
  1  6  1  0
  2  3  1  0
  3  4  1  0
  4  5  1  0
  5  6  1  0
  6  7  1  0
  7  8  2  0
  7  9  1  0
  9 10  1  0
  9 23  2  0
 10 11  2  0
 10 15  1  0
 11 12  1  0
 11 33  1  0
 12 13  2  0
 13 14  1  0
 14 15  2  0
 15 16  1  0
 16 17  1  0
 16 23  1  0
 17 18  2  0
 17 22  1  0
 18 19  1  0
 19 20  2  0
 20 21  1  0
 21 22  2  0
 23 24  1  0
 24 25  1  0
 25 26  2  0
 25 30  1  0
 26 27  1  0
 26 32  1  0
 27 28  2  0
 28 29  1  0
 29 30  2  0
 29 31  1  0
 33 34  1  0
 34 35  1  0
M  END
>  <EXTREG>  (124) 
b3a4h

>  <ID>  (124) 
b3a4h

>  <RENIN_IC50>  (124) 
1.8500

>  <ORIGIN>  (124) 
BMCL2011B

>  <RENIN_PIC50>  (124) 
5.7328

>  <TRAIN>  (124) 
test

>  <TRAIN_CLASS>  (124) 
1

$$$$
b2a4j
     RDKit          2D

 35 39  0  0  0  0  0  0  0  0999 V2000
   -3.2327   -3.6275    0.0000 C   0  0  0  0  0  0  0  0  0  0  0  0
   -4.6270   -3.0744    0.0000 C   0  0  0  0  0  0  0  0  0  0  0  0
   -4.8451   -1.5904    0.0000 N   0  0  0  0  0  0  0  0  0  0  0  0
   -3.6690   -0.6594    0.0000 C   0  0  0  0  0  0  0  0  0  0  0  0
   -2.2747   -1.2125    0.0000 C   0  0  0  0  0  0  0  0  0  0  0  0
   -2.0565   -2.6966    0.0000 N   0  0  0  0  0  0  0  0  0  0  0  0
   -0.6622   -3.2497    0.0000 C   0  0  0  0  0  0  0  0  0  0  0  0
   -0.4441   -4.7338    0.0000 O   0  0  0  0  0  0  0  0  0  0  0  0
    0.5139   -2.3188    0.0000 C   0  0  0  0  0  0  0  0  0  0  0  0
    1.9584   -2.7231    0.0000 C   0  0  0  0  0  0  0  0  0  0  0  0
    2.6245   -4.0671    0.0000 N   0  0  0  0  0  0  0  0  0  0  0  0
    4.1214   -4.1623    0.0000 C   0  0  0  0  0  0  0  0  0  0  0  0
    4.9523   -2.9134    0.0000 C   0  0  0  0  0  0  0  0  0  0  0  0
    4.2863   -1.5694    0.0000 C   0  0  0  0  0  0  0  0  0  0  0  0
    2.7893   -1.4743    0.0000 C   0  0  0  0  0  0  0  0  0  0  0  0
    1.8584   -0.2981    0.0000 N   0  0  0  0  0  0  0  0  0  0  0  0
    2.2627    1.1464    0.0000 C   0  0  0  0  0  0  0  0  0  0  0  0
    1.2139    2.2188    0.0000 C   0  0  0  0  0  0  0  0  0  0  0  0
    1.6182    3.6633    0.0000 C   0  0  0  0  0  0  0  0  0  0  0  0
    3.0714    4.0353    0.0000 C   0  0  0  0  0  0  0  0  0  0  0  0
    4.1201    2.9629    0.0000 C   0  0  0  0  0  0  0  0  0  0  0  0
    3.7158    1.5185    0.0000 C   0  0  0  0  0  0  0  0  0  0  0  0
    0.4521   -0.8200    0.0000 C   0  0  0  0  0  0  0  0  0  0  0  0
   -0.7967    0.0109    0.0000 O   0  0  0  0  0  0  0  0  0  0  0  0
   -0.7016    1.5079    0.0000 C   0  0  0  0  0  0  0  0  0  0  0  0
    0.6424    2.1739    0.0000 C   0  0  0  0  0  0  0  0  0  0  0  0
    0.7376    3.6709    0.0000 C   0  0  0  0  0  0  0  0  0  0  0  0
   -0.5112    4.5018    0.0000 C   0  0  0  0  0  0  0  0  0  0  0  0
   -1.8552    3.8358    0.0000 C   0  0  0  0  0  0  0  0  0  0  0  0
   -1.9504    2.3388    0.0000 C   0  0  0  0  0  0  0  0  0  0  0  0
   -3.3656    1.8415    0.0000 C   0  0  0  0  0  0  0  0  0  0  0  0
    2.0552    1.6699    0.0000 C   0  0  0  0  0  0  0  0  0  0  0  0
   -3.8871    0.8246    0.0000 C   0  0  0  0  0  0  0  0  0  0  0  0
   -5.2814    1.3777    0.0000 C   0  0  0  0  0  0  0  0  0  0  0  0
   -2.8332    1.8920    0.0000 C   0  0  0  0  0  0  0  0  0  0  0  0
  1  2  1  0
  1  6  1  0
  2  3  1  0
  3  4  1  0
  4  5  1  0
  4 33  1  0
  5  6  1  0
  6  7  1  0
  7  8  2  0
  7  9  1  0
  9 10  1  0
  9 23  2  0
 10 11  2  0
 10 15  1  0
 11 12  1  0
 12 13  2  0
 13 14  1  0
 14 15  2  0
 15 16  1  0
 16 17  1  0
 16 23  1  0
 17 18  2  0
 17 22  1  0
 18 19  1  0
 19 20  2  0
 20 21  1  0
 21 22  2  0
 23 24  1  0
 24 25  1  0
 25 26  2  0
 25 30  1  0
 26 27  1  0
 26 32  1  0
 27 28  2  0
 28 29  1  0
 29 30  2  0
 30 31  1  0
 33 34  1  0
 33 35  1  0
M  END
>  <EXTREG>  (125) 
b2a4j

>  <ID>  (125) 
b2a4j

>  <RENIN_IC50>  (125) 
2.7100

>  <ORIGIN>  (125) 
BMCL2011A

>  <RENIN_PIC50>  (125) 
5.5670

>  <TRAIN>  (125) 
test

>  <TRAIN_CLASS>  (125) 
1

$$$$
b1i2b
     RDKit          2D

 31 35  0  0  0  0  0  0  0  0999 V2000
   -4.8547    0.8279    0.0000 C   0  0  0  0  0  0  0  0  0  0  0  0
   -5.2548    2.2735    0.0000 C   0  0  0  0  0  0  0  0  0  0  0  0
   -4.2029    3.3429    0.0000 N   0  0  0  0  0  0  0  0  0  0  0  0
   -2.7509    2.9665    0.0000 C   0  0  0  0  0  0  0  0  0  0  0  0
   -2.3508    1.5209    0.0000 C   0  0  0  0  0  0  0  0  0  0  0  0
   -3.4027    0.4515    0.0000 N   0  0  0  0  0  0  0  0  0  0  0  0
   -3.0026   -0.9941    0.0000 C   0  0  0  0  0  0  0  0  0  0  0  0
   -4.0545   -2.0634    0.0000 O   0  0  0  0  0  0  0  0  0  0  0  0
   -1.5506   -1.3705    0.0000 C   0  0  0  0  0  0  0  0  0  0  0  0
   -1.0016   -2.7664    0.0000 C   0  0  0  0  0  0  0  0  0  0  0  0
   -1.6716   -4.1084    0.0000 C   0  0  0  0  0  0  0  0  0  0  0  0
   -0.8443   -5.3597    0.0000 C   0  0  0  0  0  0  0  0  0  0  0  0
    0.6529   -5.2689    0.0000 C   0  0  0  0  0  0  0  0  0  0  0  0
    1.3229   -3.9268    0.0000 C   0  0  0  0  0  0  0  0  0  0  0  0
    0.4957   -2.6756    0.0000 C   0  0  0  0  0  0  0  0  0  0  0  0
    0.8720   -1.2236    0.0000 N   0  0  0  0  0  0  0  0  0  0  0  0
    2.2679   -0.6745    0.0000 C   0  0  0  0  0  0  0  0  0  0  0  0
    2.4904    0.8089    0.0000 C   0  0  0  0  0  0  0  0  0  0  0  0
    3.8864    1.3579    0.0000 C   0  0  0  0  0  0  0  0  0  0  0  0
    5.0598    0.4235    0.0000 C   0  0  0  0  0  0  0  0  0  0  0  0
    4.8373   -1.0599    0.0000 C   0  0  0  0  0  0  0  0  0  0  0  0
    3.4414   -1.6089    0.0000 C   0  0  0  0  0  0  0  0  0  0  0  0
   -0.3926   -0.4169    0.0000 C   0  0  0  0  0  0  0  0  0  0  0  0
   -0.4834    1.0803    0.0000 N   0  0  0  0  0  0  0  0  0  0  0  0
    0.7678    1.9076    0.0000 C   0  0  0  0  0  0  0  0  0  0  0  0
    2.1099    1.2376    0.0000 C   0  0  0  0  0  0  0  0  0  0  0  0
    3.3612    2.0648    0.0000 C   0  0  0  0  0  0  0  0  0  0  0  0
    3.2704    3.5620    0.0000 C   0  0  0  0  0  0  0  0  0  0  0  0
    1.9283    4.2321    0.0000 C   0  0  0  0  0  0  0  0  0  0  0  0
    0.6771    3.4048    0.0000 C   0  0  0  0  0  0  0  0  0  0  0  0
   -1.6235    2.0551    0.0000 C   0  0  0  0  0  0  0  0  0  0  0  0
  1  2  1  0
  1  6  1  0
  2  3  1  0
  3  4  1  0
  4  5  1  0
  5  6  1  0
  6  7  1  0
  7  8  2  0
  7  9  1  0
  9 10  1  0
  9 23  2  0
 10 11  2  0
 10 15  1  0
 11 12  1  0
 12 13  2  0
 13 14  1  0
 14 15  2  0
 15 16  1  0
 16 17  1  0
 16 23  1  0
 17 18  2  0
 17 22  1  0
 18 19  1  0
 19 20  2  0
 20 21  1  0
 21 22  2  0
 23 24  1  0
 24 25  1  0
 24 31  1  0
 25 26  2  0
 25 30  1  0
 26 27  1  0
 27 28  2  0
 28 29  1  0
 29 30  2  0
M  END
>  <EXTREG>  (126) 
b1i2b

>  <ID>  (126) 
b1i2b

>  <RENIN_IC50>  (126) 
3.1600

>  <ORIGIN>  (126) 
BMCL2010

>  <RENIN_PIC50>  (126) 
5.5003

>  <TRAIN>  (126) 
train

>  <TRAIN_CLASS>  (126) 
0

$$$$
b3a7f
     RDKit          2D

 36 40  0  0  0  0  0  0  0  0999 V2000
   -1.5298   -4.7049    0.0000 C   0  0  0  0  0  0  0  0  0  0  0  0
   -3.0212   -4.8656    0.0000 C   0  0  0  0  0  0  0  0  0  0  0  0
   -3.9060   -3.6544    0.0000 N   0  0  0  0  0  0  0  0  0  0  0  0
   -3.2995   -2.2825    0.0000 C   0  0  0  0  0  0  0  0  0  0  0  0
   -1.8082   -2.1218    0.0000 C   0  0  0  0  0  0  0  0  0  0  0  0
   -0.9233   -3.3330    0.0000 N   0  0  0  0  0  0  0  0  0  0  0  0
    0.5681   -3.1722    0.0000 C   0  0  0  0  0  0  0  0  0  0  0  0
    1.4529   -4.3834    0.0000 O   0  0  0  0  0  0  0  0  0  0  0  0
    1.1745   -1.8003    0.0000 C   0  0  0  0  0  0  0  0  0  0  0  0
    2.6409   -1.4846    0.0000 C   0  0  0  0  0  0  0  0  0  0  0  0
    3.8568   -2.3630    0.0000 C   0  0  0  0  0  0  0  0  0  0  0  0
    5.2255   -1.7493    0.0000 N   0  0  0  0  0  0  0  0  0  0  0  0
    5.3783   -0.2571    0.0000 C   0  0  0  0  0  0  0  0  0  0  0  0
    4.1625    0.6213    0.0000 C   0  0  0  0  0  0  0  0  0  0  0  0
    2.7938    0.0076    0.0000 C   0  0  0  0  0  0  0  0  0  0  0  0
    1.4219    0.6141    0.0000 N   0  0  0  0  0  0  0  0  0  0  0  0
    1.1061    2.0805    0.0000 C   0  0  0  0  0  0  0  0  0  0  0  0
    2.2182    3.0871    0.0000 C   0  0  0  0  0  0  0  0  0  0  0  0
    1.9025    4.5535    0.0000 C   0  0  0  0  0  0  0  0  0  0  0  0
    0.4747    5.0133    0.0000 C   0  0  0  0  0  0  0  0  0  0  0  0
   -0.6374    4.0067    0.0000 C   0  0  0  0  0  0  0  0  0  0  0  0
   -0.3217    2.5403    0.0000 C   0  0  0  0  0  0  0  0  0  0  0  0
    0.4211   -0.5033    0.0000 C   0  0  0  0  0  0  0  0  0  0  0  0
   -1.0711   -0.3504    0.0000 C   0  0  0  0  0  0  0  0  0  0  0  0
   -1.6848    1.0183    0.0000 C   0  0  0  0  0  0  0  0  0  0  0  0
   -0.8063    2.2342    0.0000 C   0  0  0  0  0  0  0  0  0  0  0  0
   -1.4200    3.6029    0.0000 C   0  0  0  0  0  0  0  0  0  0  0  0
   -2.9122    3.7557    0.0000 C   0  0  0  0  0  0  0  0  0  0  0  0
   -3.7907    2.5399    0.0000 C   0  0  0  0  0  0  0  0  0  0  0  0
   -3.1770    1.1712    0.0000 C   0  0  0  0  0  0  0  0  0  0  0  0
   -4.0555   -0.0447    0.0000 C   0  0  0  0  0  0  0  0  0  0  0  0
   -5.2829    2.6927    0.0000 F   0  0  0  0  0  0  0  0  0  0  0  0
    6.7470    0.3566    0.0000 O   0  0  0  0  0  0  0  0  0  0  0  0
    7.9629   -0.5219    0.0000 C   0  0  0  0  0  0  0  0  0  0  0  0
   -4.1844   -1.0713    0.0000 C   0  0  0  0  0  0  0  0  0  0  0  0
   -5.6758   -1.2320    0.0000 O   0  0  0  0  0  0  0  0  0  0  0  0
  1  2  1  0
  1  6  1  0
  2  3  1  0
  3  4  1  0
  4  5  1  0
  4 35  1  0
  5  6  1  0
  6  7  1  0
  7  8  2  0
  7  9  1  0
  9 10  1  0
  9 23  2  0
 10 11  2  0
 10 15  1  0
 11 12  1  0
 12 13  2  0
 13 14  1  0
 13 33  1  0
 14 15  2  0
 15 16  1  0
 16 17  1  0
 16 23  1  0
 17 18  1  0
 17 22  1  0
 18 19  1  0
 19 20  1  0
 20 21  1  0
 21 22  1  0
 23 24  1  0
 24 25  1  0
 25 26  2  0
 25 30  1  0
 26 27  1  0
 27 28  2  0
 28 29  1  0
 29 30  2  0
 29 32  1  0
 30 31  1  0
 33 34  1  0
 35 36  1  0
M  END
>  <EXTREG>  (127) 
b3a7f

>  <ID>  (127) 
b3a7f

>  <RENIN_IC50>  (127) 
3.2600

>  <ORIGIN>  (127) 
BMCL2011B

>  <RENIN_PIC50>  (127) 
5.4868

>  <TRAIN>  (127) 
test

>  <TRAIN_CLASS>  (127) 
1

$$$$
b3a5e
     RDKit          2D

 30 34  0  0  0  0  0  0  0  0999 V2000
    4.8318   -1.2466    0.0000 C   0  0  0  0  0  0  0  0  0  0  0  0
    5.1270   -2.7172    0.0000 C   0  0  0  0  0  0  0  0  0  0  0  0
    4.0010   -3.7083    0.0000 N   0  0  0  0  0  0  0  0  0  0  0  0
    2.5798   -3.2286    0.0000 C   0  0  0  0  0  0  0  0  0  0  0  0
    2.2845   -1.7580    0.0000 C   0  0  0  0  0  0  0  0  0  0  0  0
    3.4105   -0.7669    0.0000 N   0  0  0  0  0  0  0  0  0  0  0  0
    3.1153    0.7037    0.0000 C   0  0  0  0  0  0  0  0  0  0  0  0
    4.2413    1.6947    0.0000 O   0  0  0  0  0  0  0  0  0  0  0  0
    1.6940    1.1834    0.0000 C   0  0  0  0  0  0  0  0  0  0  0  0
    1.2467    2.6151    0.0000 C   0  0  0  0  0  0  0  0  0  0  0  0
    2.0113    3.9056    0.0000 C   0  0  0  0  0  0  0  0  0  0  0  0
    1.2761    5.2130    0.0000 N   0  0  0  0  0  0  0  0  0  0  0  0
   -0.2238    5.2300    0.0000 C   0  0  0  0  0  0  0  0  0  0  0  0
   -0.9885    3.9395    0.0000 C   0  0  0  0  0  0  0  0  0  0  0  0
   -0.2532    2.6321    0.0000 C   0  0  0  0  0  0  0  0  0  0  0  0
   -0.7329    1.2108    0.0000 N   0  0  0  0  0  0  0  0  0  0  0  0
   -2.1646    0.7634    0.0000 C   0  0  0  0  0  0  0  0  0  0  0  0
   -2.4930   -0.7002    0.0000 C   0  0  0  0  0  0  0  0  0  0  0  0
   -3.9248   -1.1475    0.0000 C   0  0  0  0  0  0  0  0  0  0  0  0
   -5.0281   -0.1313    0.0000 C   0  0  0  0  0  0  0  0  0  0  0  0
   -4.6996    1.3323    0.0000 C   0  0  0  0  0  0  0  0  0  0  0  0
   -3.2679    1.7797    0.0000 C   0  0  0  0  0  0  0  0  0  0  0  0
    0.4706    0.3155    0.0000 C   0  0  0  0  0  0  0  0  0  0  0  0
    0.4537   -1.1844    0.0000 C   0  0  0  0  0  0  0  0  0  0  0  0
   -0.8538   -1.9197    0.0000 C   0  0  0  0  0  0  0  0  0  0  0  0
   -0.8708   -3.4196    0.0000 C   0  0  0  0  0  0  0  0  0  0  0  0
   -2.1782   -4.1549    0.0000 C   0  0  0  0  0  0  0  0  0  0  0  0
   -3.4687   -3.3902    0.0000 C   0  0  0  0  0  0  0  0  0  0  0  0
   -3.4517   -1.8903    0.0000 C   0  0  0  0  0  0  0  0  0  0  0  0
   -2.1443   -1.1551    0.0000 C   0  0  0  0  0  0  0  0  0  0  0  0
  1  2  1  0
  1  6  1  0
  2  3  1  0
  3  4  1  0
  4  5  1  0
  5  6  1  0
  6  7  1  0
  7  8  2  0
  7  9  1  0
  9 10  1  0
  9 23  2  0
 10 11  2  0
 10 15  1  0
 11 12  1  0
 12 13  2  0
 13 14  1  0
 14 15  2  0
 15 16  1  0
 16 17  1  0
 16 23  1  0
 17 18  2  0
 17 22  1  0
 18 19  1  0
 19 20  2  0
 20 21  1  0
 21 22  2  0
 23 24  1  0
 24 25  1  0
 25 26  2  0
 25 30  1  0
 26 27  1  0
 27 28  2  0
 28 29  1  0
 29 30  2  0
M  END
>  <EXTREG>  (128) 
b3a5e

>  <ID>  (128) 
b3a5e

>  <RENIN_IC50>  (128) 
3.4000

>  <ORIGIN>  (128) 
BMCL2011B

>  <RENIN_PIC50>  (128) 
5.4685

>  <TRAIN>  (128) 
train

>  <TRAIN_CLASS>  (128) 
0

$$$$
b1i3e
     RDKit          2D

 31 35  0  0  0  0  0  0  0  0999 V2000
   -4.8375   -0.2039    0.0000 C   0  0  0  0  0  0  0  0  0  0  0  0
   -3.3375   -0.1995    0.0000 N   0  0  0  0  0  0  0  0  0  0  0  0
   -2.4057    0.9759    0.0000 C   0  0  0  0  0  0  0  0  0  0  0  0
   -2.7438    2.4373    0.0000 C   0  0  0  0  0  0  0  0  0  0  0  0
   -4.0971    3.0842    0.0000 C   0  0  0  0  0  0  0  0  0  0  0  0
   -5.4467    2.4294    0.0000 N   0  0  0  0  0  0  0  0  0  0  0  0
   -5.7762    0.9661    0.0000 C   0  0  0  0  0  0  0  0  0  0  0  0
   -2.6828   -1.5491    0.0000 C   0  0  0  0  0  0  0  0  0  0  0  0
   -3.5241   -2.7909    0.0000 O   0  0  0  0  0  0  0  0  0  0  0  0
   -1.1866   -1.6568    0.0000 C   0  0  0  0  0  0  0  0  0  0  0  0
   -0.3944   -2.9305    0.0000 C   0  0  0  0  0  0  0  0  0  0  0  0
   -0.8108   -4.3716    0.0000 C   0  0  0  0  0  0  0  0  0  0  0  0
    0.2289   -5.4527    0.0000 C   0  0  0  0  0  0  0  0  0  0  0  0
    1.6851   -5.0929    0.0000 C   0  0  0  0  0  0  0  0  0  0  0  0
    2.1016   -3.6518    0.0000 C   0  0  0  0  0  0  0  0  0  0  0  0
    1.0618   -2.5707    0.0000 C   0  0  0  0  0  0  0  0  0  0  0  0
    1.1695   -1.0745    0.0000 N   0  0  0  0  0  0  0  0  0  0  0  0
    2.4433   -0.2823    0.0000 C   0  0  0  0  0  0  0  0  0  0  0  0
    2.3940    1.2169    0.0000 C   0  0  0  0  0  0  0  0  0  0  0  0
    3.6677    2.0091    0.0000 C   0  0  0  0  0  0  0  0  0  0  0  0
    4.9907    1.3022    0.0000 C   0  0  0  0  0  0  0  0  0  0  0  0
    5.0399   -0.1970    0.0000 C   0  0  0  0  0  0  0  0  0  0  0  0
    3.7662   -0.9892    0.0000 C   0  0  0  0  0  0  0  0  0  0  0  0
   -0.2201   -0.5098    0.0000 C   0  0  0  0  0  0  0  0  0  0  0  0
   -0.5799    0.9464    0.0000 O   0  0  0  0  0  0  0  0  0  0  0  0
    0.5012    1.9862    0.0000 C   0  0  0  0  0  0  0  0  0  0  0  0
    0.1413    3.4424    0.0000 C   0  0  0  0  0  0  0  0  0  0  0  0
    1.2225    4.4821    0.0000 C   0  0  0  0  0  0  0  0  0  0  0  0
    2.6635    4.0657    0.0000 C   0  0  0  0  0  0  0  0  0  0  0  0
    3.0234    2.6095    0.0000 C   0  0  0  0  0  0  0  0  0  0  0  0
    1.9423    1.5698    0.0000 C   0  0  0  0  0  0  0  0  0  0  0  0
  1  2  1  0
  1  7  1  0
  2  3  1  0
  2  8  1  0
  3  4  1  0
  4  5  1  0
  5  6  1  0
  6  7  1  0
  8  9  2  0
  8 10  1  0
 10 11  1  0
 10 24  2  0
 11 12  2  0
 11 16  1  0
 12 13  1  0
 13 14  2  0
 14 15  1  0
 15 16  2  0
 16 17  1  0
 17 18  1  0
 17 24  1  0
 18 19  2  0
 18 23  1  0
 19 20  1  0
 20 21  2  0
 21 22  1  0
 22 23  2  0
 24 25  1  0
 25 26  1  0
 26 27  2  0
 26 31  1  0
 27 28  1  0
 28 29  2  0
 29 30  1  0
 30 31  2  0
M  END
>  <EXTREG>  (129) 
b1i3e

>  <ID>  (129) 
b1i3e

>  <RENIN_IC50>  (129) 
3.4100

>  <ORIGIN>  (129) 
BMCL2010

>  <RENIN_PIC50>  (129) 
5.4672

>  <TRAIN>  (129) 
train

>  <TRAIN_CLASS>  (129) 
0

$$$$
b1i1
     RDKit          2D

 29 33  0  0  0  0  0  0  0  0999 V2000
    4.4666   -1.8429    0.0000 C   0  0  0  0  0  0  0  0  0  0  0  0
    5.9085   -1.4293    0.0000 C   0  0  0  0  0  0  0  0  0  0  0  0
    6.2712    0.0262    0.0000 N   0  0  0  0  0  0  0  0  0  0  0  0
    5.1921    1.0680    0.0000 C   0  0  0  0  0  0  0  0  0  0  0  0
    3.7502    0.6544    0.0000 C   0  0  0  0  0  0  0  0  0  0  0  0
    3.3875   -0.8010    0.0000 N   0  0  0  0  0  0  0  0  0  0  0  0
    1.9457   -1.2146    0.0000 C   0  0  0  0  0  0  0  0  0  0  0  0
    1.5829   -2.6701    0.0000 O   0  0  0  0  0  0  0  0  0  0  0  0
    0.8665   -0.1727    0.0000 C   0  0  0  0  0  0  0  0  0  0  0  0
    1.0752    1.3127    0.0000 C   0  0  0  0  0  0  0  0  0  0  0  0
    2.3186    2.1516    0.0000 C   0  0  0  0  0  0  0  0  0  0  0  0
    2.2139    3.6479    0.0000 C   0  0  0  0  0  0  0  0  0  0  0  0
    0.8656    4.3054    0.0000 C   0  0  0  0  0  0  0  0  0  0  0  0
   -0.3779    3.4664    0.0000 C   0  0  0  0  0  0  0  0  0  0  0  0
   -0.2731    1.9701    0.0000 C   0  0  0  0  0  0  0  0  0  0  0  0
   -1.3150    0.8910    0.0000 N   0  0  0  0  0  0  0  0  0  0  0  0
   -2.8004    1.0996    0.0000 C   0  0  0  0  0  0  0  0  0  0  0  0
   -3.3624    2.4903    0.0000 C   0  0  0  0  0  0  0  0  0  0  0  0
   -4.8479    2.6990    0.0000 C   0  0  0  0  0  0  0  0  0  0  0  0
   -5.7712    1.5169    0.0000 C   0  0  0  0  0  0  0  0  0  0  0  0
   -5.2092    0.1261    0.0000 C   0  0  0  0  0  0  0  0  0  0  0  0
   -3.7238   -0.0825    0.0000 C   0  0  0  0  0  0  0  0  0  0  0  0
   -0.6106   -0.4334    0.0000 C   0  0  0  0  0  0  0  0  0  0  0  0
   -1.2681   -1.7816    0.0000 N   0  0  0  0  0  0  0  0  0  0  0  0
   -2.7644   -1.8864    0.0000 C   0  0  0  0  0  0  0  0  0  0  0  0
   -3.4218   -3.2346    0.0000 C   0  0  0  0  0  0  0  0  0  0  0  0
   -2.5829   -4.4781    0.0000 C   0  0  0  0  0  0  0  0  0  0  0  0
   -1.0866   -4.3733    0.0000 C   0  0  0  0  0  0  0  0  0  0  0  0
   -0.4292   -3.0251    0.0000 C   0  0  0  0  0  0  0  0  0  0  0  0
  1  2  1  0
  1  6  1  0
  2  3  1  0
  3  4  1  0
  4  5  1  0
  5  6  1  0
  6  7  1  0
  7  8  2  0
  7  9  1  0
  9 10  1  0
  9 23  2  0
 10 11  2  0
 10 15  1  0
 11 12  1  0
 12 13  2  0
 13 14  1  0
 14 15  2  0
 15 16  1  0
 16 17  1  0
 16 23  1  0
 17 18  2  0
 17 22  1  0
 18 19  1  0
 19 20  2  0
 20 21  1  0
 21 22  2  0
 23 24  1  0
 24 25  1  0
 24 29  1  0
 25 26  1  0
 26 27  1  0
 27 28  1  0
 28 29  1  0
M  END
>  <EXTREG>  (130) 
b1i1

>  <ID>  (130) 
b1i1

>  <RENIN_IC50>  (130) 
3.8000

>  <ORIGIN>  (130) 
BMCL2010

>  <RENIN_PIC50>  (130) 
5.4202

>  <TRAIN>  (130) 
train

>  <TRAIN_CLASS>  (130) 
0

$$$$
b3a7e
     RDKit          2D

 37 41  0  0  0  0  0  0  0  0999 V2000
   -1.3558   -4.7034    0.0000 C   0  0  0  0  0  0  0  0  0  0  0  0
   -2.8473   -4.8630    0.0000 C   0  0  0  0  0  0  0  0  0  0  0  0
   -3.7313   -3.6512    0.0000 N   0  0  0  0  0  0  0  0  0  0  0  0
   -3.1238   -2.2797    0.0000 C   0  0  0  0  0  0  0  0  0  0  0  0
   -1.6324   -2.1201    0.0000 C   0  0  0  0  0  0  0  0  0  0  0  0
   -0.7483   -3.3319    0.0000 N   0  0  0  0  0  0  0  0  0  0  0  0
    0.7431   -3.1722    0.0000 C   0  0  0  0  0  0  0  0  0  0  0  0
    1.6272   -4.3840    0.0000 O   0  0  0  0  0  0  0  0  0  0  0  0
    1.3506   -1.8007    0.0000 C   0  0  0  0  0  0  0  0  0  0  0  0
    2.8172   -1.4860    0.0000 C   0  0  0  0  0  0  0  0  0  0  0  0
    4.0324   -2.3653    0.0000 C   0  0  0  0  0  0  0  0  0  0  0  0
    5.4016   -1.7526    0.0000 N   0  0  0  0  0  0  0  0  0  0  0  0
    5.5555   -0.2605    0.0000 C   0  0  0  0  0  0  0  0  0  0  0  0
    4.3403    0.6188    0.0000 C   0  0  0  0  0  0  0  0  0  0  0  0
    2.9711    0.0061    0.0000 C   0  0  0  0  0  0  0  0  0  0  0  0
    1.5996    0.6135    0.0000 N   0  0  0  0  0  0  0  0  0  0  0  0
    1.2849    2.0802    0.0000 C   0  0  0  0  0  0  0  0  0  0  0  0
    2.3977    3.0860    0.0000 C   0  0  0  0  0  0  0  0  0  0  0  0
    2.0830    4.5526    0.0000 C   0  0  0  0  0  0  0  0  0  0  0  0
    0.6555    5.0134    0.0000 C   0  0  0  0  0  0  0  0  0  0  0  0
   -0.4573    4.0075    0.0000 C   0  0  0  0  0  0  0  0  0  0  0  0
   -0.1426    2.5409    0.0000 C   0  0  0  0  0  0  0  0  0  0  0  0
    0.5981   -0.5031    0.0000 C   0  0  0  0  0  0  0  0  0  0  0  0
   -0.8940   -0.3492    0.0000 C   0  0  0  0  0  0  0  0  0  0  0  0
   -1.5068    1.0199    0.0000 C   0  0  0  0  0  0  0  0  0  0  0  0
   -0.6274    2.2352    0.0000 C   0  0  0  0  0  0  0  0  0  0  0  0
   -1.2402    3.6043    0.0000 C   0  0  0  0  0  0  0  0  0  0  0  0
   -2.7323    3.7582    0.0000 C   0  0  0  0  0  0  0  0  0  0  0  0
   -3.6116    2.5430    0.0000 C   0  0  0  0  0  0  0  0  0  0  0  0
   -2.9988    1.1738    0.0000 C   0  0  0  0  0  0  0  0  0  0  0  0
   -3.8782   -0.0414    0.0000 C   0  0  0  0  0  0  0  0  0  0  0  0
   -5.1037    2.6969    0.0000 F   0  0  0  0  0  0  0  0  0  0  0  0
    6.9246    0.3523    0.0000 O   0  0  0  0  0  0  0  0  0  0  0  0
    8.1398   -0.5271    0.0000 C   0  0  0  0  0  0  0  0  0  0  0  0
   -4.0079   -1.0679    0.0000 C   0  0  0  0  0  0  0  0  0  0  0  0
   -5.4993   -1.2276    0.0000 O   0  0  0  0  0  0  0  0  0  0  0  0
   -6.3834   -0.0158    0.0000 C   0  0  0  0  0  0  0  0  0  0  0  0
  1  2  1  0
  1  6  1  0
  2  3  1  0
  3  4  1  0
  4  5  1  0
  4 35  1  0
  5  6  1  0
  6  7  1  0
  7  8  2  0
  7  9  1  0
  9 10  1  0
  9 23  2  0
 10 11  2  0
 10 15  1  0
 11 12  1  0
 12 13  2  0
 13 14  1  0
 13 33  1  0
 14 15  2  0
 15 16  1  0
 16 17  1  0
 16 23  1  0
 17 18  1  0
 17 22  1  0
 18 19  1  0
 19 20  1  0
 20 21  1  0
 21 22  1  0
 23 24  1  0
 24 25  1  0
 25 26  2  0
 25 30  1  0
 26 27  1  0
 27 28  2  0
 28 29  1  0
 29 30  2  0
 29 32  1  0
 30 31  1  0
 33 34  1  0
 35 36  1  0
 36 37  1  0
M  END
>  <EXTREG>  (131) 
b3a7e

>  <ID>  (131) 
b3a7e

>  <RENIN_IC50>  (131) 
4.0900

>  <ORIGIN>  (131) 
BMCL2011B

>  <RENIN_PIC50>  (131) 
5.3883

>  <TRAIN>  (131) 
train

>  <TRAIN_CLASS>  (131) 
0

$$$$
b1i3c
     RDKit          2D

 37 42  0  0  0  0  0  0  0  0999 V2000
    1.0914   -4.0931    0.0000 C   0  0  0  0  0  0  0  0  0  0  0  0
    2.4561   -4.7157    0.0000 C   0  0  0  0  0  0  0  0  0  0  0  0
    3.6777   -3.8451    0.0000 N   0  0  0  0  0  0  0  0  0  0  0  0
    3.5345   -2.3520    0.0000 C   0  0  0  0  0  0  0  0  0  0  0  0
    2.1698   -1.7294    0.0000 C   0  0  0  0  0  0  0  0  0  0  0  0
    0.9483   -2.6000    0.0000 N   0  0  0  0  0  0  0  0  0  0  0  0
   -0.4164   -1.9774    0.0000 C   0  0  0  0  0  0  0  0  0  0  0  0
   -1.3910   -3.1177    0.0000 O   0  0  0  0  0  0  0  0  0  0  0  0
   -0.5596   -0.4842    0.0000 C   0  0  0  0  0  0  0  0  0  0  0  0
    0.5642    0.5092    0.0000 C   0  0  0  0  0  0  0  0  0  0  0  0
    2.0545    0.3389    0.0000 C   0  0  0  0  0  0  0  0  0  0  0  0
    2.9472    1.5443    0.0000 C   0  0  0  0  0  0  0  0  0  0  0  0
    2.3497    2.9201    0.0000 C   0  0  0  0  0  0  0  0  0  0  0  0
    0.8594    3.0905    0.0000 C   0  0  0  0  0  0  0  0  0  0  0  0
   -0.0334    1.8851    0.0000 C   0  0  0  0  0  0  0  0  0  0  0  0
   -1.5265    1.7419    0.0000 N   0  0  0  0  0  0  0  0  0  0  0  0
   -2.5200    2.8657    0.0000 C   0  0  0  0  0  0  0  0  0  0  0  0
   -2.0435    4.2880    0.0000 C   0  0  0  0  0  0  0  0  0  0  0  0
   -3.0369    5.4119    0.0000 C   0  0  0  0  0  0  0  0  0  0  0  0
   -4.5070    5.1134    0.0000 C   0  0  0  0  0  0  0  0  0  0  0  0
   -4.9835    3.6911    0.0000 C   0  0  0  0  0  0  0  0  0  0  0  0
   -3.9900    2.5673    0.0000 C   0  0  0  0  0  0  0  0  0  0  0  0
   -1.8517    0.2776    0.0000 C   0  0  0  0  0  0  0  0  0  0  0  0
   -3.2276   -0.3200    0.0000 O   0  0  0  0  0  0  0  0  0  0  0  0
   -3.3980   -1.8103    0.0000 C   0  0  0  0  0  0  0  0  0  0  0  0
   -2.1925   -2.7030    0.0000 C   0  0  0  0  0  0  0  0  0  0  0  0
   -2.3629   -4.1933    0.0000 C   0  0  0  0  0  0  0  0  0  0  0  0
   -3.7388   -4.7909    0.0000 C   0  0  0  0  0  0  0  0  0  0  0  0
   -4.9442   -3.8981    0.0000 C   0  0  0  0  0  0  0  0  0  0  0  0
   -4.7738   -2.4079    0.0000 C   0  0  0  0  0  0  0  0  0  0  0  0
    2.0266   -0.2362    0.0000 C   0  0  0  0  0  0  0  0  0  0  0  0
    3.2481    0.6343    0.0000 C   0  0  0  0  0  0  0  0  0  0  0  0
    3.1050    2.1275    0.0000 C   0  0  0  0  0  0  0  0  0  0  0  0
    4.3265    2.9980    0.0000 C   0  0  0  0  0  0  0  0  0  0  0  0
    5.6912    2.3755    0.0000 C   0  0  0  0  0  0  0  0  0  0  0  0
    5.8343    0.8823    0.0000 C   0  0  0  0  0  0  0  0  0  0  0  0
    4.6128    0.0117    0.0000 C   0  0  0  0  0  0  0  0  0  0  0  0
  1  2  1  0
  1  6  1  0
  2  3  1  0
  3  4  1  0
  4  5  1  0
  5  6  1  0
  5 31  1  0
  6  7  1  0
  7  8  2  0
  7  9  1  0
  9 10  1  0
  9 23  2  0
 10 11  2  0
 10 15  1  0
 11 12  1  0
 12 13  2  0
 13 14  1  0
 14 15  2  0
 15 16  1  0
 16 17  1  0
 16 23  1  0
 17 18  2  0
 17 22  1  0
 18 19  1  0
 19 20  2  0
 20 21  1  0
 21 22  2  0
 23 24  1  0
 24 25  1  0
 25 26  2  0
 25 30  1  0
 26 27  1  0
 27 28  2  0
 28 29  1  0
 29 30  2  0
 31 32  1  0
 32 33  2  0
 32 37  1  0
 33 34  1  0
 34 35  2  0
 35 36  1  0
 36 37  2  0
M  END
>  <EXTREG>  (132) 
b1i3c

>  <ID>  (132) 
b1i3c

>  <RENIN_IC50>  (132) 
4.5000

>  <ORIGIN>  (132) 
BMCL2010

>  <RENIN_PIC50>  (132) 
5.3468

>  <TRAIN>  (132) 
train

>  <TRAIN_CLASS>  (132) 
0

$$$$
b3a4c
     RDKit          2D

 34 38  0  0  0  0  0  0  0  0999 V2000
    1.0092   -4.8013    0.0000 C   0  0  0  0  0  0  0  0  0  0  0  0
   -0.1555   -5.7465    0.0000 C   0  0  0  0  0  0  0  0  0  0  0  0
   -1.5564   -5.2105    0.0000 N   0  0  0  0  0  0  0  0  0  0  0  0
   -1.7927   -3.7293    0.0000 C   0  0  0  0  0  0  0  0  0  0  0  0
   -0.6281   -2.7840    0.0000 C   0  0  0  0  0  0  0  0  0  0  0  0
    0.7729   -3.3200    0.0000 N   0  0  0  0  0  0  0  0  0  0  0  0
    1.9376   -2.3747    0.0000 C   0  0  0  0  0  0  0  0  0  0  0  0
    3.3386   -2.9107    0.0000 O   0  0  0  0  0  0  0  0  0  0  0  0
    1.7013   -0.8934    0.0000 C   0  0  0  0  0  0  0  0  0  0  0  0
    2.7608    0.1684    0.0000 C   0  0  0  0  0  0  0  0  0  0  0  0
    4.2588    0.0916    0.0000 C   0  0  0  0  0  0  0  0  0  0  0  0
    5.0744    1.3505    0.0000 C   0  0  0  0  0  0  0  0  0  0  0  0
    4.3919    2.6862    0.0000 C   0  0  0  0  0  0  0  0  0  0  0  0
    2.8939    2.7631    0.0000 N   0  0  0  0  0  0  0  0  0  0  0  0
    2.0783    1.5041    0.0000 C   0  0  0  0  0  0  0  0  0  0  0  0
    0.5970    1.2679    0.0000 N   0  0  0  0  0  0  0  0  0  0  0  0
   -0.4648    2.3273    0.0000 C   0  0  0  0  0  0  0  0  0  0  0  0
   -0.0782    3.7767    0.0000 C   0  0  0  0  0  0  0  0  0  0  0  0
   -1.1400    4.8361    0.0000 C   0  0  0  0  0  0  0  0  0  0  0  0
   -2.5885    4.4463    0.0000 C   0  0  0  0  0  0  0  0  0  0  0  0
   -2.9751    2.9970    0.0000 C   0  0  0  0  0  0  0  0  0  0  0  0
   -1.9133    1.9375    0.0000 C   0  0  0  0  0  0  0  0  0  0  0  0
    0.3640   -0.2139    0.0000 C   0  0  0  0  0  0  0  0  0  0  0  0
   -0.9717   -0.8964    0.0000 C   0  0  0  0  0  0  0  0  0  0  0  0
   -2.2306   -0.0808    0.0000 C   0  0  0  0  0  0  0  0  0  0  0  0
   -2.1538    1.4172    0.0000 C   0  0  0  0  0  0  0  0  0  0  0  0
   -3.4127    2.2327    0.0000 C   0  0  0  0  0  0  0  0  0  0  0  0
   -4.7485    1.5503    0.0000 C   0  0  0  0  0  0  0  0  0  0  0  0
   -4.8253    0.0522    0.0000 C   0  0  0  0  0  0  0  0  0  0  0  0
   -3.5664   -0.7633    0.0000 C   0  0  0  0  0  0  0  0  0  0  0  0
   -3.6432   -2.2613    0.0000 C   0  0  0  0  0  0  0  0  0  0  0  0
   -6.1611   -0.6302    0.0000 F   0  0  0  0  0  0  0  0  0  0  0  0
    6.5724    1.2736    0.0000 O   0  0  0  0  0  0  0  0  0  0  0  0
    7.2549   -0.0621    0.0000 C   0  0  0  0  0  0  0  0  0  0  0  0
  1  2  1  0
  1  6  1  0
  2  3  1  0
  3  4  1  0
  4  5  1  0
  5  6  1  0
  6  7  1  0
  7  8  2  0
  7  9  1  0
  9 10  1  0
  9 23  2  0
 10 11  2  0
 10 15  1  0
 11 12  1  0
 12 13  2  0
 12 33  1  0
 13 14  1  0
 14 15  2  0
 15 16  1  0
 16 17  1  0
 16 23  1  0
 17 18  2  0
 17 22  1  0
 18 19  1  0
 19 20  2  0
 20 21  1  0
 21 22  2  0
 23 24  1  0
 24 25  1  0
 25 26  2  0
 25 30  1  0
 26 27  1  0
 27 28  2  0
 28 29  1  0
 29 30  2  0
 29 32  1  0
 30 31  1  0
 33 34  1  0
M  END
>  <EXTREG>  (133) 
b3a4c

>  <ID>  (133) 
b3a4c

>  <RENIN_IC50>  (133) 
4.6700

>  <ORIGIN>  (133) 
BMCL2011B

>  <RENIN_PIC50>  (133) 
5.3307

>  <TRAIN>  (133) 
train

>  <TRAIN_CLASS>  (133) 
0

$$$$
b1i4a
     RDKit          2D

 30 34  0  0  0  0  0  0  0  0999 V2000
    4.8318   -1.2466    0.0000 C   0  0  0  0  0  0  0  0  0  0  0  0
    5.1270   -2.7172    0.0000 C   0  0  0  0  0  0  0  0  0  0  0  0
    4.0010   -3.7083    0.0000 N   0  0  0  0  0  0  0  0  0  0  0  0
    2.5798   -3.2286    0.0000 C   0  0  0  0  0  0  0  0  0  0  0  0
    2.2845   -1.7580    0.0000 C   0  0  0  0  0  0  0  0  0  0  0  0
    3.4105   -0.7669    0.0000 N   0  0  0  0  0  0  0  0  0  0  0  0
    3.1153    0.7037    0.0000 C   0  0  0  0  0  0  0  0  0  0  0  0
    4.2413    1.6947    0.0000 O   0  0  0  0  0  0  0  0  0  0  0  0
    1.6940    1.1834    0.0000 C   0  0  0  0  0  0  0  0  0  0  0  0
    1.2467    2.6151    0.0000 C   0  0  0  0  0  0  0  0  0  0  0  0
    2.0113    3.9056    0.0000 C   0  0  0  0  0  0  0  0  0  0  0  0
    1.2761    5.2130    0.0000 C   0  0  0  0  0  0  0  0  0  0  0  0
   -0.2238    5.2300    0.0000 C   0  0  0  0  0  0  0  0  0  0  0  0
   -0.9885    3.9395    0.0000 C   0  0  0  0  0  0  0  0  0  0  0  0
   -0.2532    2.6321    0.0000 C   0  0  0  0  0  0  0  0  0  0  0  0
   -0.7329    1.2108    0.0000 N   0  0  0  0  0  0  0  0  0  0  0  0
   -2.1646    0.7634    0.0000 C   0  0  0  0  0  0  0  0  0  0  0  0
   -2.4930   -0.7002    0.0000 C   0  0  0  0  0  0  0  0  0  0  0  0
   -3.9248   -1.1475    0.0000 C   0  0  0  0  0  0  0  0  0  0  0  0
   -5.0281   -0.1313    0.0000 C   0  0  0  0  0  0  0  0  0  0  0  0
   -4.6996    1.3323    0.0000 C   0  0  0  0  0  0  0  0  0  0  0  0
   -3.2679    1.7797    0.0000 N   0  0  0  0  0  0  0  0  0  0  0  0
    0.4706    0.3155    0.0000 C   0  0  0  0  0  0  0  0  0  0  0  0
    0.4537   -1.1844    0.0000 O   0  0  0  0  0  0  0  0  0  0  0  0
   -0.8538   -1.9197    0.0000 C   0  0  0  0  0  0  0  0  0  0  0  0
   -0.8708   -3.4196    0.0000 C   0  0  0  0  0  0  0  0  0  0  0  0
   -2.1782   -4.1549    0.0000 C   0  0  0  0  0  0  0  0  0  0  0  0
   -3.4687   -3.3902    0.0000 C   0  0  0  0  0  0  0  0  0  0  0  0
   -3.4517   -1.8903    0.0000 C   0  0  0  0  0  0  0  0  0  0  0  0
   -2.1443   -1.1551    0.0000 C   0  0  0  0  0  0  0  0  0  0  0  0
  1  2  1  0
  1  6  1  0
  2  3  1  0
  3  4  1  0
  4  5  1  0
  5  6  1  0
  6  7  1  0
  7  8  2  0
  7  9  1  0
  9 10  1  0
  9 23  2  0
 10 11  2  0
 10 15  1  0
 11 12  1  0
 12 13  2  0
 13 14  1  0
 14 15  2  0
 15 16  1  0
 16 17  1  0
 16 23  1  0
 17 18  2  0
 17 22  1  0
 18 19  1  0
 19 20  2  0
 20 21  1  0
 21 22  2  0
 23 24  1  0
 24 25  1  0
 25 26  2  0
 25 30  1  0
 26 27  1  0
 27 28  2  0
 28 29  1  0
 29 30  2  0
M  END
>  <EXTREG>  (134) 
b1i4a

>  <ID>  (134) 
b1i4a

>  <RENIN_IC50>  (134) 
4.9700

>  <ORIGIN>  (134) 
BMCL2010

>  <RENIN_PIC50>  (134) 
5.3036

>  <TRAIN>  (134) 
train

>  <TRAIN_CLASS>  (134) 
0

$$$$
b2a5b
     RDKit          2D

 33 37  0  0  0  0  0  0  0  0999 V2000
    3.3503   -3.8001    0.0000 C   0  0  0  0  0  0  0  0  0  0  0  0
    2.7743   -5.1851    0.0000 C   0  0  0  0  0  0  0  0  0  0  0  0
    1.2868   -5.3788    0.0000 N   0  0  0  0  0  0  0  0  0  0  0  0
    0.3754   -4.1875    0.0000 C   0  0  0  0  0  0  0  0  0  0  0  0
    0.9513   -2.8024    0.0000 C   0  0  0  0  0  0  0  0  0  0  0  0
    2.4388   -2.6087    0.0000 N   0  0  0  0  0  0  0  0  0  0  0  0
    3.0148   -1.2237    0.0000 C   0  0  0  0  0  0  0  0  0  0  0  0
    4.5022   -1.0300    0.0000 O   0  0  0  0  0  0  0  0  0  0  0  0
    2.1033   -0.0324    0.0000 C   0  0  0  0  0  0  0  0  0  0  0  0
    2.5313    1.4052    0.0000 C   0  0  0  0  0  0  0  0  0  0  0  0
    3.8861    2.0491    0.0000 N   0  0  0  0  0  0  0  0  0  0  0  0
    4.0059    3.5443    0.0000 C   0  0  0  0  0  0  0  0  0  0  0  0
    2.7709    4.3956    0.0000 C   0  0  0  0  0  0  0  0  0  0  0  0
    1.4161    3.7518    0.0000 C   0  0  0  0  0  0  0  0  0  0  0  0
    1.2963    2.2566    0.0000 C   0  0  0  0  0  0  0  0  0  0  0  0
    0.1050    1.3451    0.0000 N   0  0  0  0  0  0  0  0  0  0  0  0
   -1.3326    1.7731    0.0000 C   0  0  0  0  0  0  0  0  0  0  0  0
   -2.4221    0.7421    0.0000 C   0  0  0  0  0  0  0  0  0  0  0  0
   -3.8598    1.1702    0.0000 C   0  0  0  0  0  0  0  0  0  0  0  0
   -4.2079    2.6292    0.0000 C   0  0  0  0  0  0  0  0  0  0  0  0
   -3.1184    3.6602    0.0000 C   0  0  0  0  0  0  0  0  0  0  0  0
   -1.6807    3.2322    0.0000 C   0  0  0  0  0  0  0  0  0  0  0  0
    0.6037   -0.0696    0.0000 C   0  0  0  0  0  0  0  0  0  0  0  0
   -0.2476   -1.3046    0.0000 O   0  0  0  0  0  0  0  0  0  0  0  0
   -1.7428   -1.1848    0.0000 C   0  0  0  0  0  0  0  0  0  0  0  0
   -2.5942   -2.4198    0.0000 C   0  0  0  0  0  0  0  0  0  0  0  0
   -4.0894   -2.3000    0.0000 C   0  0  0  0  0  0  0  0  0  0  0  0
   -4.7332   -0.9452    0.0000 C   0  0  0  0  0  0  0  0  0  0  0  0
   -3.8819    0.2898    0.0000 C   0  0  0  0  0  0  0  0  0  0  0  0
   -2.3867    0.1700    0.0000 C   0  0  0  0  0  0  0  0  0  0  0  0
   -4.5257    1.6446    0.0000 F   0  0  0  0  0  0  0  0  0  0  0  0
   -1.9503   -3.7746    0.0000 C   0  0  0  0  0  0  0  0  0  0  0  0
    5.3607    4.1881    0.0000 O   0  0  0  0  0  0  0  0  0  0  0  0
  1  2  1  0
  1  6  1  0
  2  3  1  0
  3  4  1  0
  4  5  1  0
  5  6  1  0
  6  7  1  0
  7  8  2  0
  7  9  1  0
  9 10  1  0
  9 23  2  0
 10 11  1  0
 10 15  2  0
 11 12  1  0
 12 13  1  0
 12 33  2  0
 13 14  2  0
 14 15  1  0
 15 16  1  0
 16 17  1  0
 16 23  1  0
 17 18  2  0
 17 22  1  0
 18 19  1  0
 19 20  2  0
 20 21  1  0
 21 22  2  0
 23 24  1  0
 24 25  1  0
 25 26  2  0
 25 30  1  0
 26 27  1  0
 26 32  1  0
 27 28  2  0
 28 29  1  0
 29 30  2  0
 29 31  1  0
M  END
>  <EXTREG>  (135) 
b2a5b

>  <ID>  (135) 
b2a5b

>  <RENIN_IC50>  (135) 
5.0000

>  <ORIGIN>  (135) 
BMCL2011A

>  <RENIN_PIC50>  (135) 
5.3010

>  <TRAIN>  (135) 
train

>  <TRAIN_CLASS>  (135) 
0

$$$$
b3a3c
     RDKit          2D

 31 35  0  0  0  0  0  0  0  0999 V2000
   -4.8712    0.8500    0.0000 C   0  0  0  0  0  0  0  0  0  0  0  0
   -5.2454    2.3026    0.0000 C   0  0  0  0  0  0  0  0  0  0  0  0
   -4.1745    3.3529    0.0000 N   0  0  0  0  0  0  0  0  0  0  0  0
   -2.7294    2.9507    0.0000 C   0  0  0  0  0  0  0  0  0  0  0  0
   -2.3553    1.4981    0.0000 C   0  0  0  0  0  0  0  0  0  0  0  0
   -3.4262    0.4478    0.0000 N   0  0  0  0  0  0  0  0  0  0  0  0
   -3.0520   -1.0048    0.0000 C   0  0  0  0  0  0  0  0  0  0  0  0
   -4.1229   -2.0552    0.0000 O   0  0  0  0  0  0  0  0  0  0  0  0
   -1.6069   -1.4071    0.0000 C   0  0  0  0  0  0  0  0  0  0  0  0
   -1.0830   -2.8126    0.0000 C   0  0  0  0  0  0  0  0  0  0  0  0
   -1.7769   -4.1424    0.0000 C   0  0  0  0  0  0  0  0  0  0  0  0
   -0.9722   -5.4083    0.0000 C   0  0  0  0  0  0  0  0  0  0  0  0
    0.5265   -5.3443    0.0000 C   0  0  0  0  0  0  0  0  0  0  0  0
    1.2204   -4.0145    0.0000 N   0  0  0  0  0  0  0  0  0  0  0  0
    0.4157   -2.7486    0.0000 C   0  0  0  0  0  0  0  0  0  0  0  0
    0.8179   -1.3036    0.0000 N   0  0  0  0  0  0  0  0  0  0  0  0
    2.2234   -0.7796    0.0000 C   0  0  0  0  0  0  0  0  0  0  0  0
    3.3799   -1.7348    0.0000 C   0  0  0  0  0  0  0  0  0  0  0  0
    4.7855   -1.2109    0.0000 C   0  0  0  0  0  0  0  0  0  0  0  0
    5.0345    0.2683    0.0000 C   0  0  0  0  0  0  0  0  0  0  0  0
    3.8779    1.2235    0.0000 C   0  0  0  0  0  0  0  0  0  0  0  0
    2.4724    0.6996    0.0000 C   0  0  0  0  0  0  0  0  0  0  0  0
   -0.4321   -0.4744    0.0000 C   0  0  0  0  0  0  0  0  0  0  0  0
   -0.4961    1.0242    0.0000 O   0  0  0  0  0  0  0  0  0  0  0  0
    0.7698    1.8289    0.0000 C   0  0  0  0  0  0  0  0  0  0  0  0
    2.0996    1.1350    0.0000 C   0  0  0  0  0  0  0  0  0  0  0  0
    3.3655    1.9397    0.0000 C   0  0  0  0  0  0  0  0  0  0  0  0
    3.3015    3.4384    0.0000 C   0  0  0  0  0  0  0  0  0  0  0  0
    1.9717    4.1323    0.0000 C   0  0  0  0  0  0  0  0  0  0  0  0
    0.7058    3.3276    0.0000 C   0  0  0  0  0  0  0  0  0  0  0  0
   -0.6241    4.0215    0.0000 F   0  0  0  0  0  0  0  0  0  0  0  0
  1  2  1  0
  1  6  1  0
  2  3  1  0
  3  4  1  0
  4  5  1  0
  5  6  1  0
  6  7  1  0
  7  8  2  0
  7  9  1  0
  9 10  1  0
  9 23  2  0
 10 11  2  0
 10 15  1  0
 11 12  1  0
 12 13  2  0
 13 14  1  0
 14 15  2  0
 15 16  1  0
 16 17  1  0
 16 23  1  0
 17 18  2  0
 17 22  1  0
 18 19  1  0
 19 20  2  0
 20 21  1  0
 21 22  2  0
 23 24  1  0
 24 25  1  0
 25 26  2  0
 25 30  1  0
 26 27  1  0
 27 28  2  0
 28 29  1  0
 29 30  2  0
 30 31  1  0
M  END
>  <EXTREG>  (136) 
b3a3c

>  <ID>  (136) 
b3a3c

>  <RENIN_IC50>  (136) 
5.0600

>  <ORIGIN>  (136) 
BMCL2011B

>  <RENIN_PIC50>  (136) 
5.2958

>  <TRAIN>  (136) 
train

>  <TRAIN_CLASS>  (136) 
0

$$$$
b3a3h
     RDKit          2D

 30 34  0  0  0  0  0  0  0  0999 V2000
    4.8318   -1.2466    0.0000 C   0  0  0  0  0  0  0  0  0  0  0  0
    5.1270   -2.7172    0.0000 C   0  0  0  0  0  0  0  0  0  0  0  0
    4.0010   -3.7083    0.0000 N   0  0  0  0  0  0  0  0  0  0  0  0
    2.5798   -3.2286    0.0000 C   0  0  0  0  0  0  0  0  0  0  0  0
    2.2845   -1.7580    0.0000 C   0  0  0  0  0  0  0  0  0  0  0  0
    3.4105   -0.7669    0.0000 N   0  0  0  0  0  0  0  0  0  0  0  0
    3.1153    0.7037    0.0000 C   0  0  0  0  0  0  0  0  0  0  0  0
    4.2413    1.6947    0.0000 O   0  0  0  0  0  0  0  0  0  0  0  0
    1.6940    1.1834    0.0000 C   0  0  0  0  0  0  0  0  0  0  0  0
    1.2467    2.6151    0.0000 C   0  0  0  0  0  0  0  0  0  0  0  0
    2.0113    3.9056    0.0000 C   0  0  0  0  0  0  0  0  0  0  0  0
    1.2761    5.2130    0.0000 C   0  0  0  0  0  0  0  0  0  0  0  0
   -0.2238    5.2300    0.0000 C   0  0  0  0  0  0  0  0  0  0  0  0
   -0.9885    3.9395    0.0000 N   0  0  0  0  0  0  0  0  0  0  0  0
   -0.2532    2.6321    0.0000 C   0  0  0  0  0  0  0  0  0  0  0  0
   -0.7329    1.2108    0.0000 N   0  0  0  0  0  0  0  0  0  0  0  0
   -2.1646    0.7634    0.0000 C   0  0  0  0  0  0  0  0  0  0  0  0
   -2.4930   -0.7002    0.0000 C   0  0  0  0  0  0  0  0  0  0  0  0
   -3.9248   -1.1475    0.0000 C   0  0  0  0  0  0  0  0  0  0  0  0
   -5.0281   -0.1313    0.0000 C   0  0  0  0  0  0  0  0  0  0  0  0
   -4.6996    1.3323    0.0000 C   0  0  0  0  0  0  0  0  0  0  0  0
   -3.2679    1.7797    0.0000 C   0  0  0  0  0  0  0  0  0  0  0  0
    0.4706    0.3155    0.0000 C   0  0  0  0  0  0  0  0  0  0  0  0
    0.4537   -1.1844    0.0000 C   0  0  0  0  0  0  0  0  0  0  0  0
   -0.8538   -1.9197    0.0000 C   0  0  0  0  0  0  0  0  0  0  0  0
   -0.8708   -3.4196    0.0000 C   0  0  0  0  0  0  0  0  0  0  0  0
   -2.1782   -4.1549    0.0000 C   0  0  0  0  0  0  0  0  0  0  0  0
   -3.4687   -3.3902    0.0000 C   0  0  0  0  0  0  0  0  0  0  0  0
   -3.4517   -1.8903    0.0000 C   0  0  0  0  0  0  0  0  0  0  0  0
   -2.1443   -1.1551    0.0000 C   0  0  0  0  0  0  0  0  0  0  0  0
  1  2  1  0
  1  6  1  0
  2  3  1  0
  3  4  1  0
  4  5  1  0
  5  6  1  0
  6  7  1  0
  7  8  2  0
  7  9  1  0
  9 10  1  0
  9 23  2  0
 10 11  2  0
 10 15  1  0
 11 12  1  0
 12 13  2  0
 13 14  1  0
 14 15  2  0
 15 16  1  0
 16 17  1  0
 16 23  1  0
 17 18  2  0
 17 22  1  0
 18 19  1  0
 19 20  2  0
 20 21  1  0
 21 22  2  0
 23 24  1  0
 24 25  1  0
 25 26  2  0
 25 30  1  0
 26 27  1  0
 27 28  2  0
 28 29  1  0
 29 30  2  0
M  END
>  <EXTREG>  (137) 
b3a3h

>  <ID>  (137) 
b3a3h

>  <RENIN_IC50>  (137) 
6.4100

>  <ORIGIN>  (137) 
BMCL2011B

>  <RENIN_PIC50>  (137) 
5.1931

>  <TRAIN>  (137) 
train

>  <TRAIN_CLASS>  (137) 
0

$$$$
b1i3a
     RDKit          2D

 31 35  0  0  0  0  0  0  0  0999 V2000
   -4.9046    0.2705    0.0000 C   0  0  0  0  0  0  0  0  0  0  0  0
   -5.4485    1.6685    0.0000 C   0  0  0  0  0  0  0  0  0  0  0  0
   -4.5098    2.8385    0.0000 N   0  0  0  0  0  0  0  0  0  0  0  0
   -3.0272    2.6105    0.0000 C   0  0  0  0  0  0  0  0  0  0  0  0
   -2.4833    1.2126    0.0000 C   0  0  0  0  0  0  0  0  0  0  0  0
   -3.4220    0.0426    0.0000 N   0  0  0  0  0  0  0  0  0  0  0  0
   -2.8781   -1.3553    0.0000 C   0  0  0  0  0  0  0  0  0  0  0  0
   -3.8168   -2.5253    0.0000 O   0  0  0  0  0  0  0  0  0  0  0  0
   -1.3955   -1.5832    0.0000 C   0  0  0  0  0  0  0  0  0  0  0  0
   -0.7085   -2.9166    0.0000 C   0  0  0  0  0  0  0  0  0  0  0  0
   -1.2397   -4.3194    0.0000 C   0  0  0  0  0  0  0  0  0  0  0  0
   -0.2904   -5.4808    0.0000 C   0  0  0  0  0  0  0  0  0  0  0  0
    1.1900   -5.2395    0.0000 C   0  0  0  0  0  0  0  0  0  0  0  0
    1.7212   -3.8367    0.0000 C   0  0  0  0  0  0  0  0  0  0  0  0
    0.7720   -2.6752    0.0000 C   0  0  0  0  0  0  0  0  0  0  0  0
    0.9999   -1.1927    0.0000 N   0  0  0  0  0  0  0  0  0  0  0  0
    2.3333   -0.5056    0.0000 C   0  0  0  0  0  0  0  0  0  0  0  0
    2.4050    0.9927    0.0000 C   0  0  0  0  0  0  0  0  0  0  0  0
    3.7384    1.6797    0.0000 C   0  0  0  0  0  0  0  0  0  0  0  0
    5.0001    0.8685    0.0000 C   0  0  0  0  0  0  0  0  0  0  0  0
    4.9284   -0.6298    0.0000 C   0  0  0  0  0  0  0  0  0  0  0  0
    3.5950   -1.3169    0.0000 C   0  0  0  0  0  0  0  0  0  0  0  0
   -0.3397   -0.5177    0.0000 C   0  0  0  0  0  0  0  0  0  0  0  0
   -0.5811    0.9627    0.0000 O   0  0  0  0  0  0  0  0  0  0  0  0
    0.5803    1.9120    0.0000 C   0  0  0  0  0  0  0  0  0  0  0  0
    0.3390    3.3924    0.0000 C   0  0  0  0  0  0  0  0  0  0  0  0
    1.5004    4.3417    0.0000 C   0  0  0  0  0  0  0  0  0  0  0  0
    2.9032    3.8105    0.0000 C   0  0  0  0  0  0  0  0  0  0  0  0
    3.1446    2.3300    0.0000 C   0  0  0  0  0  0  0  0  0  0  0  0
    1.9831    1.3808    0.0000 C   0  0  0  0  0  0  0  0  0  0  0  0
   -2.0886    3.7805    0.0000 C   0  0  0  0  0  0  0  0  0  0  0  0
  1  2  1  0
  1  6  1  0
  2  3  1  0
  3  4  1  0
  4  5  1  0
  4 31  1  0
  5  6  1  0
  6  7  1  0
  7  8  2  0
  7  9  1  0
  9 10  1  0
  9 23  2  0
 10 11  2  0
 10 15  1  0
 11 12  1  0
 12 13  2  0
 13 14  1  0
 14 15  2  0
 15 16  1  0
 16 17  1  0
 16 23  1  0
 17 18  2  0
 17 22  1  0
 18 19  1  0
 19 20  2  0
 20 21  1  0
 21 22  2  0
 23 24  1  0
 24 25  1  0
 25 26  2  0
 25 30  1  0
 26 27  1  0
 27 28  2  0
 28 29  1  0
 29 30  2  0
M  END
>  <EXTREG>  (138) 
b1i3a

>  <ID>  (138) 
b1i3a

>  <RENIN_IC50>  (138) 
6.4600

>  <ORIGIN>  (138) 
BMCL2010

>  <RENIN_PIC50>  (138) 
5.1898

>  <TRAIN>  (138) 
train

>  <TRAIN_CLASS>  (138) 
0

$$$$
b2a5a
     RDKit          2D

 34 38  0  0  0  0  0  0  0  0999 V2000
    1.9536   -4.6197    0.0000 C   0  0  0  0  0  0  0  0  0  0  0  0
    1.0167   -5.7911    0.0000 C   0  0  0  0  0  0  0  0  0  0  0  0
   -0.4662   -5.5654    0.0000 N   0  0  0  0  0  0  0  0  0  0  0  0
   -1.0122   -4.1683    0.0000 C   0  0  0  0  0  0  0  0  0  0  0  0
   -0.0753   -2.9969    0.0000 C   0  0  0  0  0  0  0  0  0  0  0  0
    1.4076   -3.2226    0.0000 N   0  0  0  0  0  0  0  0  0  0  0  0
    2.3445   -2.0512    0.0000 C   0  0  0  0  0  0  0  0  0  0  0  0
    3.8274   -2.2768    0.0000 O   0  0  0  0  0  0  0  0  0  0  0  0
    1.7985   -0.6541    0.0000 C   0  0  0  0  0  0  0  0  0  0  0  0
    2.6078    0.6089    0.0000 C   0  0  0  0  0  0  0  0  0  0  0  0
    4.0879    0.8525    0.0000 N   0  0  0  0  0  0  0  0  0  0  0  0
    4.6170    2.2561    0.0000 C   0  0  0  0  0  0  0  0  0  0  0  0
    3.6660    3.4161    0.0000 C   0  0  0  0  0  0  0  0  0  0  0  0
    2.1859    3.1724    0.0000 C   0  0  0  0  0  0  0  0  0  0  0  0
    1.6568    1.7688    0.0000 C   0  0  0  0  0  0  0  0  0  0  0  0
    0.2597    1.2228    0.0000 N   0  0  0  0  0  0  0  0  0  0  0  0
   -1.0032    2.0322    0.0000 C   0  0  0  0  0  0  0  0  0  0  0  0
   -2.3356    1.3431    0.0000 C   0  0  0  0  0  0  0  0  0  0  0  0
   -3.5985    2.1524    0.0000 C   0  0  0  0  0  0  0  0  0  0  0  0
   -3.5290    3.6508    0.0000 C   0  0  0  0  0  0  0  0  0  0  0  0
   -2.1967    4.3399    0.0000 C   0  0  0  0  0  0  0  0  0  0  0  0
   -0.9337    3.5306    0.0000 C   0  0  0  0  0  0  0  0  0  0  0  0
    0.3473   -0.2746    0.0000 C   0  0  0  0  0  0  0  0  0  0  0  0
   -0.8127   -1.2256    0.0000 O   0  0  0  0  0  0  0  0  0  0  0  0
   -2.2163   -0.6966    0.0000 C   0  0  0  0  0  0  0  0  0  0  0  0
   -3.3763   -1.6476    0.0000 C   0  0  0  0  0  0  0  0  0  0  0  0
   -4.7799   -1.1185    0.0000 C   0  0  0  0  0  0  0  0  0  0  0  0
   -5.0235    0.3616    0.0000 C   0  0  0  0  0  0  0  0  0  0  0  0
   -3.8635    1.3126    0.0000 C   0  0  0  0  0  0  0  0  0  0  0  0
   -2.4599    0.7835    0.0000 C   0  0  0  0  0  0  0  0  0  0  0  0
   -4.1071    2.7927    0.0000 F   0  0  0  0  0  0  0  0  0  0  0  0
   -3.1327   -3.1277    0.0000 C   0  0  0  0  0  0  0  0  0  0  0  0
    6.0971    2.4997    0.0000 O   0  0  0  0  0  0  0  0  0  0  0  0
    7.0481    1.3397    0.0000 C   0  0  0  0  0  0  0  0  0  0  0  0
  1  2  1  0
  1  6  1  0
  2  3  1  0
  3  4  1  0
  4  5  1  0
  5  6  1  0
  6  7  1  0
  7  8  2  0
  7  9  1  0
  9 10  1  0
  9 23  2  0
 10 11  2  0
 10 15  1  0
 11 12  1  0
 12 13  2  0
 12 33  1  0
 13 14  1  0
 14 15  2  0
 15 16  1  0
 16 17  1  0
 16 23  1  0
 17 18  2  0
 17 22  1  0
 18 19  1  0
 19 20  2  0
 20 21  1  0
 21 22  2  0
 23 24  1  0
 24 25  1  0
 25 26  2  0
 25 30  1  0
 26 27  1  0
 26 32  1  0
 27 28  2  0
 28 29  1  0
 29 30  2  0
 29 31  1  0
 33 34  1  0
M  END
>  <EXTREG>  (139) 
b2a5a

>  <ID>  (139) 
b2a5a

>  <RENIN_IC50>  (139) 
6.6300

>  <ORIGIN>  (139) 
BMCL2011A

>  <RENIN_PIC50>  (139) 
5.1785

>  <TRAIN>  (139) 
train

>  <TRAIN_CLASS>  (139) 
0

$$$$
b1i3b
     RDKit          2D

 32 36  0  0  0  0  0  0  0  0999 V2000
   -4.7092   -1.0671    0.0000 C   0  0  0  0  0  0  0  0  0  0  0  0
   -5.5917    0.1458    0.0000 C   0  0  0  0  0  0  0  0  0  0  0  0
   -4.9826    1.5165    0.0000 N   0  0  0  0  0  0  0  0  0  0  0  0
   -3.4909    1.6743    0.0000 C   0  0  0  0  0  0  0  0  0  0  0  0
   -2.6084    0.4614    0.0000 C   0  0  0  0  0  0  0  0  0  0  0  0
   -3.2175   -0.9093    0.0000 N   0  0  0  0  0  0  0  0  0  0  0  0
   -2.3350   -2.1222    0.0000 C   0  0  0  0  0  0  0  0  0  0  0  0
   -2.9441   -3.4930    0.0000 O   0  0  0  0  0  0  0  0  0  0  0  0
   -0.8433   -1.9644    0.0000 C   0  0  0  0  0  0  0  0  0  0  0  0
    0.1612   -3.0784    0.0000 C   0  0  0  0  0  0  0  0  0  0  0  0
    0.0054   -4.5703    0.0000 C   0  0  0  0  0  0  0  0  0  0  0  0
    1.2196   -5.4511    0.0000 C   0  0  0  0  0  0  0  0  0  0  0  0
    2.5894   -4.8401    0.0000 C   0  0  0  0  0  0  0  0  0  0  0  0
    2.7452   -3.3482    0.0000 C   0  0  0  0  0  0  0  0  0  0  0  0
    1.5311   -2.4673    0.0000 C   0  0  0  0  0  0  0  0  0  0  0  0
    1.3732   -0.9757    0.0000 N   0  0  0  0  0  0  0  0  0  0  0  0
    2.4872    0.0288    0.0000 C   0  0  0  0  0  0  0  0  0  0  0  0
    2.1743    1.4958    0.0000 C   0  0  0  0  0  0  0  0  0  0  0  0
    3.2884    2.5003    0.0000 C   0  0  0  0  0  0  0  0  0  0  0  0
    4.7153    2.0378    0.0000 C   0  0  0  0  0  0  0  0  0  0  0  0
    5.0282    0.5708    0.0000 C   0  0  0  0  0  0  0  0  0  0  0  0
    3.9141   -0.4337    0.0000 C   0  0  0  0  0  0  0  0  0  0  0  0
   -0.0942   -0.6648    0.0000 C   0  0  0  0  0  0  0  0  0  0  0  0
   -0.7053    0.7051    0.0000 O   0  0  0  0  0  0  0  0  0  0  0  0
    0.1755    1.9192    0.0000 C   0  0  0  0  0  0  0  0  0  0  0  0
   -0.4355    3.2891    0.0000 C   0  0  0  0  0  0  0  0  0  0  0  0
    0.4453    4.5032    0.0000 C   0  0  0  0  0  0  0  0  0  0  0  0
    1.9372    4.3475    0.0000 C   0  0  0  0  0  0  0  0  0  0  0  0
    2.5483    2.9776    0.0000 C   0  0  0  0  0  0  0  0  0  0  0  0
    1.6674    1.7635    0.0000 C   0  0  0  0  0  0  0  0  0  0  0  0
   -3.9054    3.1159    0.0000 C   0  0  0  0  0  0  0  0  0  0  0  0
   -2.1432    2.3328    0.0000 C   0  0  0  0  0  0  0  0  0  0  0  0
  1  2  1  0
  1  6  1  0
  2  3  1  0
  3  4  1  0
  4  5  1  0
  4 31  1  0
  4 32  1  0
  5  6  1  0
  6  7  1  0
  7  8  2  0
  7  9  1  0
  9 10  1  0
  9 23  2  0
 10 11  2  0
 10 15  1  0
 11 12  1  0
 12 13  2  0
 13 14  1  0
 14 15  2  0
 15 16  1  0
 16 17  1  0
 16 23  1  0
 17 18  2  0
 17 22  1  0
 18 19  1  0
 19 20  2  0
 20 21  1  0
 21 22  2  0
 23 24  1  0
 24 25  1  0
 25 26  2  0
 25 30  1  0
 26 27  1  0
 27 28  2  0
 28 29  1  0
 29 30  2  0
M  END
>  <EXTREG>  (140) 
b1i3b

>  <ID>  (140) 
b1i3b

>  <RENIN_IC50>  (140) 
7.3000

>  <ORIGIN>  (140) 
BMCL2010

>  <RENIN_PIC50>  (140) 
5.1367

>  <TRAIN>  (140) 
test

>  <TRAIN_CLASS>  (140) 
1

$$$$
b1i2c
     RDKit          2D

 34 38  0  0  0  0  0  0  0  0999 V2000
    1.9649   -4.7267    0.0000 C   0  0  0  0  0  0  0  0  0  0  0  0
    0.8150   -5.6898    0.0000 C   0  0  0  0  0  0  0  0  0  0  0  0
   -0.5941   -5.1755    0.0000 N   0  0  0  0  0  0  0  0  0  0  0  0
   -0.8532   -3.6981    0.0000 C   0  0  0  0  0  0  0  0  0  0  0  0
    0.2967   -2.7349    0.0000 C   0  0  0  0  0  0  0  0  0  0  0  0
    1.7058   -3.2492    0.0000 N   0  0  0  0  0  0  0  0  0  0  0  0
    2.8557   -2.2861    0.0000 C   0  0  0  0  0  0  0  0  0  0  0  0
    4.2648   -2.8004    0.0000 O   0  0  0  0  0  0  0  0  0  0  0  0
    2.5965   -0.8086    0.0000 C   0  0  0  0  0  0  0  0  0  0  0  0
    3.6395    0.2695    0.0000 C   0  0  0  0  0  0  0  0  0  0  0  0
    5.1385    0.2158    0.0000 C   0  0  0  0  0  0  0  0  0  0  0  0
    5.9345    1.4871    0.0000 C   0  0  0  0  0  0  0  0  0  0  0  0
    5.2315    2.8122    0.0000 C   0  0  0  0  0  0  0  0  0  0  0  0
    3.7325    2.8659    0.0000 C   0  0  0  0  0  0  0  0  0  0  0  0
    2.9365    1.5945    0.0000 C   0  0  0  0  0  0  0  0  0  0  0  0
    1.4590    1.3354    0.0000 N   0  0  0  0  0  0  0  0  0  0  0  0
    0.3809    2.3783    0.0000 C   0  0  0  0  0  0  0  0  0  0  0  0
   -1.0613    1.9661    0.0000 C   0  0  0  0  0  0  0  0  0  0  0  0
   -2.1394    3.0091    0.0000 C   0  0  0  0  0  0  0  0  0  0  0  0
   -1.7752    4.4642    0.0000 C   0  0  0  0  0  0  0  0  0  0  0  0
   -0.3330    4.8764    0.0000 C   0  0  0  0  0  0  0  0  0  0  0  0
    0.7451    3.8334    0.0000 C   0  0  0  0  0  0  0  0  0  0  0  0
    1.2489   -0.1499    0.0000 C   0  0  0  0  0  0  0  0  0  0  0  0
   -0.0761   -0.8529    0.0000 O   0  0  0  0  0  0  0  0  0  0  0  0
   -1.3475   -0.0569    0.0000 C   0  0  0  0  0  0  0  0  0  0  0  0
   -2.6725   -0.7599    0.0000 C   0  0  0  0  0  0  0  0  0  0  0  0
   -3.9439    0.0361    0.0000 C   0  0  0  0  0  0  0  0  0  0  0  0
   -3.8902    1.5352    0.0000 C   0  0  0  0  0  0  0  0  0  0  0  0
   -2.5652    2.2382    0.0000 C   0  0  0  0  0  0  0  0  0  0  0  0
   -1.2938    1.4422    0.0000 C   0  0  0  0  0  0  0  0  0  0  0  0
   -5.2689   -0.6669    0.0000 C   0  0  0  0  0  0  0  0  0  0  0  0
   -6.5940   -1.3699    0.0000 F   0  0  0  0  0  0  0  0  0  0  0  0
   -5.9720    0.6581    0.0000 F   0  0  0  0  0  0  0  0  0  0  0  0
   -4.5659   -1.9920    0.0000 F   0  0  0  0  0  0  0  0  0  0  0  0
  1  2  1  0
  1  6  1  0
  2  3  1  0
  3  4  1  0
  4  5  1  0
  5  6  1  0
  6  7  1  0
  7  8  2  0
  7  9  1  0
  9 10  1  0
  9 23  2  0
 10 11  2  0
 10 15  1  0
 11 12  1  0
 12 13  2  0
 13 14  1  0
 14 15  2  0
 15 16  1  0
 16 17  1  0
 16 23  1  0
 17 18  2  0
 17 22  1  0
 18 19  1  0
 19 20  2  0
 20 21  1  0
 21 22  2  0
 23 24  1  0
 24 25  1  0
 25 26  2  0
 25 30  1  0
 26 27  1  0
 27 28  2  0
 27 31  1  0
 28 29  1  0
 29 30  2  0
 31 32  1  0
 31 33  1  0
 31 34  1  0
M  END
>  <EXTREG>  (141) 
b1i2c

>  <ID>  (141) 
b1i2c

>  <RENIN_IC50>  (141) 
9.0000

>  <ORIGIN>  (141) 
BMCL2010

>  <RENIN_PIC50>  (141) 
5.0458

>  <TRAIN>  (141) 
train

>  <TRAIN_CLASS>  (141) 
0

$$$$
b1i4h
     RDKit          2D

 33 37  0  0  0  0  0  0  0  0999 V2000
    4.7234   -2.0919    0.0000 C   0  0  0  0  0  0  0  0  0  0  0  0
    4.6670   -3.5908    0.0000 C   0  0  0  0  0  0  0  0  0  0  0  0
    3.3407   -4.2915    0.0000 N   0  0  0  0  0  0  0  0  0  0  0  0
    2.0708   -3.4932    0.0000 C   0  0  0  0  0  0  0  0  0  0  0  0
    2.1272   -1.9942    0.0000 C   0  0  0  0  0  0  0  0  0  0  0  0
    3.4535   -1.2936    0.0000 N   0  0  0  0  0  0  0  0  0  0  0  0
    3.5099    0.2053    0.0000 C   0  0  0  0  0  0  0  0  0  0  0  0
    4.8362    0.9060    0.0000 O   0  0  0  0  0  0  0  0  0  0  0  0
    2.2399    1.0036    0.0000 C   0  0  0  0  0  0  0  0  0  0  0  0
    2.1393    2.5003    0.0000 C   0  0  0  0  0  0  0  0  0  0  0  0
    3.1842    3.5765    0.0000 C   0  0  0  0  0  0  0  0  0  0  0  0
    2.7747    5.0195    0.0000 C   0  0  0  0  0  0  0  0  0  0  0  0
    1.3202    5.3863    0.0000 C   0  0  0  0  0  0  0  0  0  0  0  0
    0.2753    4.3101    0.0000 C   0  0  0  0  0  0  0  0  0  0  0  0
    0.6849    2.8671    0.0000 C   0  0  0  0  0  0  0  0  0  0  0  0
   -0.1134    1.5972    0.0000 N   0  0  0  0  0  0  0  0  0  0  0  0
   -1.6100    1.4966    0.0000 C   0  0  0  0  0  0  0  0  0  0  0  0
   -2.2712    0.1501    0.0000 C   0  0  0  0  0  0  0  0  0  0  0  0
   -3.7679    0.0495    0.0000 N   0  0  0  0  0  0  0  0  0  0  0  0
   -4.6033    1.2954    0.0000 C   0  0  0  0  0  0  0  0  0  0  0  0
   -3.9421    2.6418    0.0000 C   0  0  0  0  0  0  0  0  0  0  0  0
   -2.4455    2.7424    0.0000 C   0  0  0  0  0  0  0  0  0  0  0  0
   -6.0999    1.1948    0.0000 O   0  0  0  0  0  0  0  0  0  0  0  0
    0.8477    0.4455    0.0000 C   0  0  0  0  0  0  0  0  0  0  0  0
    0.4809   -1.0090    0.0000 C   0  0  0  0  0  0  0  0  0  0  0  0
   -0.9621   -1.4185    0.0000 C   0  0  0  0  0  0  0  0  0  0  0  0
   -1.3290   -2.8730    0.0000 C   0  0  0  0  0  0  0  0  0  0  0  0
   -2.7720   -3.2826    0.0000 C   0  0  0  0  0  0  0  0  0  0  0  0
   -3.8482   -2.2377    0.0000 C   0  0  0  0  0  0  0  0  0  0  0  0
   -3.4813   -0.7832    0.0000 C   0  0  0  0  0  0  0  0  0  0  0  0
   -2.0383   -0.3736    0.0000 C   0  0  0  0  0  0  0  0  0  0  0  0
   -3.1388   -4.7370    0.0000 F   0  0  0  0  0  0  0  0  0  0  0  0
   -0.2528   -3.9179    0.0000 C   0  0  0  0  0  0  0  0  0  0  0  0
  1  2  1  0
  1  6  1  0
  2  3  1  0
  3  4  1  0
  4  5  1  0
  5  6  1  0
  6  7  1  0
  7  8  2  0
  7  9  1  0
  9 10  1  0
  9 24  2  0
 10 11  2  0
 10 15  1  0
 11 12  1  0
 12 13  2  0
 13 14  1  0
 14 15  2  0
 15 16  1  0
 16 17  1  0
 16 24  1  0
 17 18  2  0
 17 22  1  0
 18 19  1  0
 19 20  2  0
 20 21  1  0
 20 23  1  0
 21 22  2  0
 24 25  1  0
 25 26  1  0
 26 27  2  0
 26 31  1  0
 27 28  1  0
 27 33  1  0
 28 29  2  0
 28 32  1  0
 29 30  1  0
 30 31  2  0
M  END
>  <EXTREG>  (142) 
b1i4h

>  <ID>  (142) 
b1i4h

>  <RENIN_IC50>  (142) 
9.3500

>  <ORIGIN>  (142) 
BMCL2010

>  <RENIN_PIC50>  (142) 
5.0292

>  <TRAIN>  (142) 
train

>  <TRAIN_CLASS>  (142) 
0

$$$$
